<?xml version="1.0" encoding="UTF-8"?>
<!-- generated on 2019-01-27 19:18:44.155848 by $Id$ via randomTrips.py
  options: 
-->
<routes xmlns:xsi="http://www.w3.org/2001/XMLSchema-instance" xsi:noNamespaceSchemaLocation="http://sumo.dlr.de/xsd/routes_file.xsd">
    <vType id="bike_bicycle" vClass="bicycle">
    </vType>
    <trip id="bike0" depart="0.00" departLane="best" from="286524698" to="-141913259#1" type="bike_bicycle"/>
    <trip id="bike1" depart="5.61" departLane="best" from="-5246845#5" to="-5246845#8" type="bike_bicycle"/>
    <trip id="bike2" depart="11.23" departLane="best" from="5245321#5" to="49682101#10" type="bike_bicycle"/>
    <trip id="bike3" depart="16.84" departLane="best" from="5248257#7" to="-161730983#4" type="bike_bicycle"/>
    <trip id="bike4" depart="22.46" departLane="best" from="-5248600#5" to="-141913259#4" type="bike_bicycle"/>
    <trip id="bike5" depart="28.07" departLane="best" from="-5243462#8" to="159396197#1" type="bike_bicycle"/>
    <trip id="bike6" depart="33.69" departLane="best" departSpeed="max" from="-100974469" to="-5246603#1" type="bike_bicycle"/>
    <trip id="bike7" depart="39.30" departLane="best" from="316333792#0" to="159396225#7" type="bike_bicycle"/>
    <trip id="bike8" depart="44.92" departLane="best" departSpeed="max" from="-5243462#9" to="238902094#8" type="bike_bicycle"/>
    <trip id="bike9" depart="50.53" departLane="best" from="5247219#6" to="-123435724#1" type="bike_bicycle"/>
    <trip id="bike10" depart="56.15" departLane="best" from="5247219#4" to="5243462#3" type="bike_bicycle"/>
    <trip id="bike11" depart="61.76" departLane="best" from="-5247826#1" to="-5243462#1" type="bike_bicycle"/>
    <trip id="bike12" depart="67.38" departLane="best" from="5248873#4" to="-5248440#0" type="bike_bicycle"/>
    <trip id="bike13" depart="72.99" departLane="best" from="-159396225#4" to="-171479232#0" type="bike_bicycle"/>
    <trip id="bike14" depart="78.61" departLane="best" from="5248097#3" to="315933910" type="bike_bicycle"/>
    <trip id="bike15" depart="84.22" departLane="best" from="5247219#5" to="5245321#8" type="bike_bicycle"/>
    <trip id="bike16" depart="89.84" departLane="best" from="141913259#1" to="56323061#4" type="bike_bicycle"/>
    <trip id="bike17" depart="95.45" departLane="best" from="-5248103#7" to="161730983#2" type="bike_bicycle"/>
    <trip id="bike18" depart="101.07" departLane="best" from="5247714#7" to="316335138" type="bike_bicycle"/>
    <trip id="bike19" depart="106.68" departLane="best" departSpeed="max" from="5248103#0" to="238902094#1" type="bike_bicycle"/>
    <trip id="bike20" depart="112.29" departLane="best" from="49682101#7" to="-159396197#7" type="bike_bicycle"/>
    <trip id="bike21" depart="117.91" departLane="best" from="-5245321#1" to="-5248097#3" type="bike_bicycle"/>
    <trip id="bike22" depart="123.52" departLane="best" from="-159396219#0" to="-5246897#4" type="bike_bicycle"/>
    <trip id="bike23" depart="129.14" departLane="best" from="-159396225#9" to="-5247826#0" type="bike_bicycle"/>
    <trip id="bike24" depart="134.75" departLane="best" from="238902094#7" to="-5248603#2" type="bike_bicycle"/>
    <trip id="bike25" depart="140.37" departLane="best" from="-5248103#2" to="-5246845#13" type="bike_bicycle"/>
    <trip id="bike26" depart="145.98" departLane="best" departSpeed="max" from="-5246845#15" to="5248804#3" type="bike_bicycle"/>
    <trip id="bike27" depart="151.60" departLane="best" from="315935169" to="315934747" type="bike_bicycle"/>
    <trip id="bike28" depart="157.21" departLane="best" from="-394751651#0" to="5245321#8" type="bike_bicycle"/>
    <trip id="bike29" depart="162.83" departLane="best" departSpeed="max" from="-346414619" to="-5248804#0" type="bike_bicycle"/>
    <trip id="bike30" depart="168.44" departLane="best" departSpeed="max" from="92994210" to="394751651#1" type="bike_bicycle"/>
    <trip id="bike31" depart="174.06" departLane="best" from="159396197#7" to="49682101#5" type="bike_bicycle"/>
    <trip id="bike32" depart="179.67" departLane="best" from="5248097#0" to="5246897#3" type="bike_bicycle"/>
    <trip id="bike33" depart="185.29" departLane="best" from="-5245321#1" to="-141913259#6" type="bike_bicycle"/>
    <trip id="bike34" depart="190.90" departLane="best" departSpeed="max" from="-5247219#9" to="-5247714#3" type="bike_bicycle"/>
    <trip id="bike35" depart="196.52" departLane="best" from="-5243462#4" to="5248804#7" type="bike_bicycle"/>
    <trip id="bike36" depart="202.13" departLane="best" from="5248103#7" to="-5248103#5" type="bike_bicycle"/>
    <trip id="bike37" depart="207.75" departLane="best" departSpeed="max" from="332073132" to="-5248873#2" type="bike_bicycle"/>
    <trip id="bike38" depart="213.36" departLane="best" from="5248600#4" to="100974463#0" type="bike_bicycle"/>
    <trip id="bike39" depart="218.98" departLane="best" from="-5246845#14" to="-5247219#1" type="bike_bicycle"/>
    <trip id="bike40" depart="224.59" departLane="best" from="159396207" to="-5247714#0" type="bike_bicycle"/>
    <trip id="bike41" depart="230.20" departLane="best" from="159396225#4" to="5248465#0" type="bike_bicycle"/>
    <trip id="bike42" depart="235.82" departLane="best" departSpeed="max" from="-5248257#8" to="-5246845#6" type="bike_bicycle"/>
    <trip id="bike43" depart="241.43" departLane="best" from="93014834#0" to="159396197#5" type="bike_bicycle"/>
    <trip id="bike44" depart="247.05" departLane="best" from="-159396225#2" to="-159396197#7" type="bike_bicycle"/>
    <trip id="bike45" depart="252.66" departLane="best" from="-161730983#6" to="346414619" type="bike_bicycle"/>
    <trip id="bike46" depart="258.28" departLane="best" from="5246897#6" to="-92369358" type="bike_bicycle"/>
    <trip id="bike47" depart="263.89" departLane="best" from="-159396197#5" to="-5248804#1" type="bike_bicycle"/>
    <trip id="bike48" depart="269.51" departLane="best" from="93014833" to="159396219#0" type="bike_bicycle"/>
    <trip id="bike49" depart="275.12" departLane="best" from="5248890#5" to="5248103#2" type="bike_bicycle"/>
    <trip id="bike50" depart="280.74" departLane="best" from="-100974462" to="5245321#4" type="bike_bicycle"/>
    <trip id="bike51" depart="286.35" departLane="best" from="48232853#0" to="159396225#11" type="bike_bicycle"/>
    <trip id="bike52" depart="291.97" departLane="best" departSpeed="max" from="-5246845#15" to="394751652#1" type="bike_bicycle"/>
    <trip id="bike53" depart="297.58" departLane="best" from="-161730983#7" to="-93014830" type="bike_bicycle"/>
    <trip id="bike54" depart="303.20" departLane="best" departSpeed="max" from="-5248804#7" to="5248873#4" type="bike_bicycle"/>
    <trip id="bike55" depart="308.81" departLane="best" from="5248103#7" to="-5247714#1" type="bike_bicycle"/>
    <trip id="bike56" depart="314.43" departLane="best" from="-93014834#0" to="-5245321#3" type="bike_bicycle"/>
    <trip id="bike57" depart="320.04" departLane="best" from="5248600#3" to="5248103#8" type="bike_bicycle"/>
    <trip id="bike58" depart="325.66" departLane="best" departSpeed="max" from="-5246897#7" to="394751651#1" type="bike_bicycle"/>
    <trip id="bike59" depart="331.27" departLane="best" departSpeed="max" from="171479232#0" to="-48232853#5" type="bike_bicycle"/>
    <trip id="bike60" depart="336.88" departLane="best" from="5246845#12" to="159396225#2" type="bike_bicycle"/>
    <trip id="bike61" depart="342.50" departLane="best" from="5246845#8" to="159396219#1" type="bike_bicycle"/>
    <trip id="bike62" depart="348.11" departLane="best" departSpeed="max" from="-100813049" to="-5248257#1" type="bike_bicycle"/>
    <trip id="bike63" depart="353.73" departLane="best" departSpeed="max" from="-100974465" to="5248605#1" type="bike_bicycle"/>
    <trip id="bike64" depart="359.34" departLane="best" from="5248103#9" to="5247961#0" type="bike_bicycle"/>
    <trip id="bike65" depart="364.96" departLane="best" from="-5247219#4" to="-159396219#1" type="bike_bicycle"/>
    <trip id="bike66" depart="370.57" departLane="best" from="5248103#8" to="5248873#0" type="bike_bicycle"/>
    <trip id="bike67" depart="376.19" departLane="best" from="-159396225#1" to="123435765#4" type="bike_bicycle"/>
    <trip id="bike68" depart="381.80" departLane="best" from="-159396209" to="5246845#4" type="bike_bicycle"/>
    <trip id="bike69" depart="387.42" departLane="best" from="5246845#14" to="-394751650" type="bike_bicycle"/>
    <trip id="bike70" depart="393.03" departLane="best" from="-5248890#4" to="161730983#1" type="bike_bicycle"/>
    <trip id="bike71" depart="398.65" departLane="best" from="-5246845#14" to="5248103#9" type="bike_bicycle"/>
    <trip id="bike72" depart="404.26" departLane="best" from="-5248600#5" to="-5246845#14" type="bike_bicycle"/>
    <trip id="bike73" depart="409.88" departLane="best" from="141913259#3" to="5245321#8" type="bike_bicycle"/>
    <trip id="bike74" depart="415.49" departLane="best" departSpeed="max" from="-48232853#6" to="-5248103#3" type="bike_bicycle"/>
    <trip id="bike75" depart="421.11" departLane="best" from="93014833" to="424417969#2" type="bike_bicycle"/>
    <trip id="bike76" depart="426.72" departLane="best" from="-5248605#1" to="159396207" type="bike_bicycle"/>
    <trip id="bike77" depart="432.34" departLane="best" from="-171479232#3" to="-5246845#9" type="bike_bicycle"/>
    <trip id="bike78" depart="437.95" departLane="best" from="-5247826#0" to="238902094#7" type="bike_bicycle"/>
    <trip id="bike79" depart="443.57" departLane="best" from="-5245321#2" to="-5246845#6" type="bike_bicycle"/>
    <trip id="bike80" depart="449.18" departLane="best" from="-159396212#0" to="346425294" type="bike_bicycle"/>
    <trip id="bike81" depart="454.79" departLane="best" from="-5245321#1" to="5248600#0" type="bike_bicycle"/>
    <trip id="bike82" depart="460.41" departLane="best" departSpeed="max" from="5248103#0" to="-159396225#4" type="bike_bicycle"/>
    <trip id="bike83" depart="466.02" departLane="best" from="-5245321#7" to="48232853#6" type="bike_bicycle"/>
    <trip id="bike84" depart="471.64" departLane="best" from="-5243462#6" to="-394751652#0" type="bike_bicycle"/>
    <trip id="bike85" depart="477.25" departLane="best" from="5248605#1" to="171479232#4" type="bike_bicycle"/>
    <trip id="bike86" depart="482.87" departLane="best" from="-5248890#3" to="5246897#7" type="bike_bicycle"/>
    <trip id="bike87" depart="488.48" departLane="best" from="5247219#5" to="-5246282#2" type="bike_bicycle"/>
    <trip id="bike88" depart="494.10" departLane="best" from="-159396225#7" to="-92994216" type="bike_bicycle"/>
    <trip id="bike89" depart="499.71" departLane="best" from="-5248600#6" to="100974465" type="bike_bicycle"/>
    <trip id="bike90" depart="505.33" departLane="best" from="5245321#1" to="49682101#1" type="bike_bicycle"/>
    <trip id="bike91" depart="510.94" departLane="best" from="92369363#0" to="-171479232#1" type="bike_bicycle"/>
    <trip id="bike92" depart="516.56" departLane="best" from="-5248440#2" to="-5248440#1" type="bike_bicycle"/>
    <trip id="bike93" depart="522.17" departLane="best" departSpeed="max" from="5248103#0" to="-5247219#2" type="bike_bicycle"/>
    <trip id="bike94" depart="527.79" departLane="best" departSpeed="max" from="-424418019" to="100974458" type="bike_bicycle"/>
    <trip id="bike95" depart="533.40" departLane="best" from="-5248600#5" to="-5247826#1" type="bike_bicycle"/>
    <trip id="bike96" depart="539.02" departLane="best" from="-5246282#4" to="5248603#4" type="bike_bicycle"/>
    <trip id="bike97" depart="544.63" departLane="best" from="-5248804#1" to="5248103#2" type="bike_bicycle"/>
    <trip id="bike98" depart="550.25" departLane="best" from="159396197#3" to="-159396209" type="bike_bicycle"/>
    <trip id="bike99" depart="555.86" departLane="best" from="93014834#1" to="5248097#0" type="bike_bicycle"/>
    <trip id="bike100" depart="561.47" departLane="best" from="5248890#4" to="5248603#6" type="bike_bicycle"/>
    <trip id="bike101" depart="567.09" departLane="best" from="5248097#4" to="-5243462#7" type="bike_bicycle"/>
    <trip id="bike102" depart="572.70" departLane="best" departSpeed="max" from="-56323061#4" to="-5246845#2" type="bike_bicycle"/>
    <trip id="bike103" depart="578.32" departLane="best" from="-5248440#1" to="-159396219#1" type="bike_bicycle"/>
    <trip id="bike104" depart="583.93" departLane="best" from="-5248103#7" to="93014822" type="bike_bicycle"/>
    <trip id="bike105" depart="589.55" departLane="best" from="-5246845#14" to="5246897#7" type="bike_bicycle"/>
    <trip id="bike106" depart="595.16" departLane="best" departSpeed="max" from="-5248804#7" to="-92369358" type="bike_bicycle"/>
    <trip id="bike107" depart="600.78" departLane="best" from="5248873#4" to="93014834#1" type="bike_bicycle"/>
    <trip id="bike108" depart="606.39" departLane="best" from="159396197#6" to="5245321#3" type="bike_bicycle"/>
    <trip id="bike109" depart="612.01" departLane="best" from="-316333792#0" to="-5248097#7" type="bike_bicycle"/>
    <trip id="bike110" depart="617.62" departLane="best" from="5248890#4" to="238902094#2" type="bike_bicycle"/>
    <trip id="bike111" depart="623.24" departLane="best" from="141913259#5" to="5246845#11" type="bike_bicycle"/>
    <trip id="bike112" depart="628.85" departLane="best" from="-159396197#0" to="238902094#5" type="bike_bicycle"/>
    <trip id="bike113" depart="634.47" departLane="best" departSpeed="max" from="-93014834#2" to="5248097#8" type="bike_bicycle"/>
    <trip id="bike114" depart="640.08" departLane="best" from="-316471866" to="5248890#1" type="bike_bicycle"/>
    <trip id="bike115" depart="645.70" departLane="best" from="-159396219#0" to="-5246282#0" type="bike_bicycle"/>
    <trip id="bike116" depart="651.31" departLane="best" from="161730983#1" to="49682101#10" type="bike_bicycle"/>
    <trip id="bike117" depart="656.93" departLane="best" from="-5245321#5" to="-316333792#0" type="bike_bicycle"/>
    <trip id="bike118" depart="662.54" departLane="best" from="5248257#5" to="-5247219#1" type="bike_bicycle"/>
    <trip id="bike119" depart="668.16" departLane="best" from="161730983#1" to="316471866" type="bike_bicycle"/>
    <trip id="bike120" depart="673.77" departLane="best" from="-5248600#3" to="238902094#5" type="bike_bicycle"/>
    <trip id="bike121" depart="679.38" departLane="best" departSpeed="max" from="123435765#0" to="5248804#2" type="bike_bicycle"/>
    <trip id="bike122" depart="685.00" departLane="best" from="-5243462#0" to="5245321#1" type="bike_bicycle"/>
    <trip id="bike123" depart="690.61" departLane="best" from="-5245321#7" to="-5248873#2" type="bike_bicycle"/>
    <trip id="bike124" depart="696.23" departLane="best" from="40535422#1" to="-5248097#9" type="bike_bicycle"/>
    <trip id="bike125" depart="701.84" departLane="best" departSpeed="max" from="-5247219#9" to="5246845#13" type="bike_bicycle"/>
    <trip id="bike126" depart="707.46" departLane="best" from="-159396212#1" to="100974462" type="bike_bicycle"/>
    <trip id="bike127" depart="713.07" departLane="best" from="93014834#1" to="93014834#1" type="bike_bicycle"/>
    <trip id="bike128" depart="718.69" departLane="best" from="-159396212#1" to="-5246845#2" type="bike_bicycle"/>
    <trip id="bike129" depart="724.30" departLane="best" from="-5246845#14" to="5248804#1" type="bike_bicycle"/>
    <trip id="bike130" depart="729.92" departLane="best" from="5248257#0" to="5248257#3" type="bike_bicycle"/>
    <trip id="bike131" depart="735.53" departLane="best" from="-5248103#2" to="-5243462#2" type="bike_bicycle"/>
    <trip id="bike132" depart="741.15" departLane="best" from="5247826#1" to="5243462#7" type="bike_bicycle"/>
    <trip id="bike133" depart="746.76" departLane="best" from="171479232#1" to="93014822" type="bike_bicycle"/>
    <trip id="bike134" depart="752.38" departLane="best" from="316471866" to="-123435724#2" type="bike_bicycle"/>
    <trip id="bike135" depart="757.99" departLane="best" from="5247714#0" to="-5248097#9" type="bike_bicycle"/>
    <trip id="bike136" depart="763.61" departLane="best" from="394751651#0" to="5248804#4" type="bike_bicycle"/>
    <trip id="bike137" depart="769.22" departLane="best" departSpeed="max" from="-286524721" to="-315928579" type="bike_bicycle"/>
    <trip id="bike138" depart="774.84" departLane="best" from="-161730983#4" to="161730983#3" type="bike_bicycle"/>
    <trip id="bike139" depart="780.45" departLane="best" from="-5246845#3" to="315933910" type="bike_bicycle"/>
    <trip id="bike140" depart="786.06" departLane="best" from="5243462#5" to="-5246845#1" type="bike_bicycle"/>
    <trip id="bike141" depart="791.68" departLane="best" from="238902094#7" to="-5247714#1" type="bike_bicycle"/>
    <trip id="bike142" depart="797.29" departLane="best" from="-92369361" to="5248600#0" type="bike_bicycle"/>
    <trip id="bike143" depart="802.91" departLane="best" from="5248097#10" to="-161730983#7" type="bike_bicycle"/>
    <trip id="bike144" depart="808.52" departLane="best" from="-5248600#6" to="-5247826#0" type="bike_bicycle"/>
    <trip id="bike145" depart="814.14" departLane="best" departSpeed="max" from="-100974458" to="5246897#0" type="bike_bicycle"/>
    <trip id="bike146" depart="819.75" departLane="best" from="238902094#8" to="-5247714#0" type="bike_bicycle"/>
    <trip id="bike147" depart="825.37" departLane="best" from="5246282#0" to="161730983#2" type="bike_bicycle"/>
    <trip id="bike148" depart="830.98" departLane="best" from="-5248603#1" to="-123435724#3" type="bike_bicycle"/>
    <trip id="bike149" depart="836.60" departLane="best" from="-159396212#2" to="5248257#5" type="bike_bicycle"/>
    <trip id="bike150" depart="842.21" departLane="best" from="5248465#0" to="159396225#7" type="bike_bicycle"/>
    <trip id="bike151" depart="847.83" departLane="best" from="5247826#1" to="238902094#4" type="bike_bicycle"/>
    <trip id="bike152" depart="853.44" departLane="best" departSpeed="max" from="-315934747" to="-332073132" type="bike_bicycle"/>
    <trip id="bike153" depart="859.06" departLane="best" from="-5247219#4" to="5248465#1" type="bike_bicycle"/>
    <trip id="bike154" depart="864.67" departLane="best" from="5247010#1" to="5248103#2" type="bike_bicycle"/>
    <trip id="bike155" depart="870.29" departLane="best" from="5248440#2" to="-5246845#13" type="bike_bicycle"/>
    <trip id="bike156" depart="875.90" departLane="best" from="-5246282#3" to="-171479232#4" type="bike_bicycle"/>
    <trip id="bike157" depart="881.52" departLane="best" from="5246845#9" to="5248257#6" type="bike_bicycle"/>
    <trip id="bike158" depart="887.13" departLane="best" from="-5248440#4" to="332456027" type="bike_bicycle"/>
    <trip id="bike159" depart="892.74" departLane="best" from="-316333792#0" to="5248605#2" type="bike_bicycle"/>
    <trip id="bike160" depart="898.36" departLane="best" from="5248103#10" to="56323061#4" type="bike_bicycle"/>
    <trip id="bike161" depart="903.97" departLane="best" from="5247219#7" to="5248257#4" type="bike_bicycle"/>
    <trip id="bike162" depart="909.59" departLane="best" departSpeed="max" from="-100974469" to="5246282#3" type="bike_bicycle"/>
    <trip id="bike163" depart="915.20" departLane="best" from="-5247714#7" to="5248605#2" type="bike_bicycle"/>
    <trip id="bike164" depart="920.82" departLane="best" from="5247219#1" to="5248103#4" type="bike_bicycle"/>
    <trip id="bike165" depart="926.43" departLane="best" from="5247219#7" to="-5247714#3" type="bike_bicycle"/>
    <trip id="bike166" depart="932.05" departLane="best" from="5246897#3" to="-263548359" type="bike_bicycle"/>
    <trip id="bike167" depart="937.66" departLane="best" from="5248103#5" to="5248103#11" type="bike_bicycle"/>
    <trip id="bike168" depart="943.28" departLane="best" departSpeed="max" from="-5243462#9" to="5247714#6" type="bike_bicycle"/>
    <trip id="bike169" depart="948.89" departLane="best" from="-5248873#2" to="-5248103#1" type="bike_bicycle"/>
    <trip id="bike170" depart="954.51" departLane="best" departSpeed="max" from="5247010#0" to="-5246897#0" type="bike_bicycle"/>
    <trip id="bike171" depart="960.12" departLane="best" departSpeed="max" from="-100974469" to="-5246282#4" type="bike_bicycle"/>
    <trip id="bike172" depart="965.74" departLane="best" from="-5247714#5" to="5248103#4" type="bike_bicycle"/>
    <trip id="bike173" depart="971.35" departLane="best" from="5248890#3" to="-5247826#1" type="bike_bicycle"/>
    <trip id="bike174" depart="976.97" departLane="best" from="286524716" to="-5248873#5" type="bike_bicycle"/>
    <trip id="bike175" depart="982.58" departLane="best" from="92369358" to="159396225#10" type="bike_bicycle"/>
    <trip id="bike176" depart="988.20" departLane="best" from="5248804#0" to="-315928579" type="bike_bicycle"/>
    <trip id="bike177" depart="993.81" departLane="best" from="5248890#5" to="-5245321#3" type="bike_bicycle"/>
    <trip id="bike178" depart="999.43" departLane="best" departSpeed="max" from="5248890#0" to="-5247714#2" type="bike_bicycle"/>
    <trip id="bike179" depart="1005.04" departLane="best" from="-161730983#5" to="-93014830" type="bike_bicycle"/>
    <trip id="bike180" depart="1010.65" departLane="best" from="5245321#1" to="-5248103#5" type="bike_bicycle"/>
    <trip id="bike181" depart="1016.27" departLane="best" from="161731011" to="159396197#6" type="bike_bicycle"/>
    <trip id="bike182" depart="1021.88" departLane="best" from="-5248257#1" to="171479232#8" type="bike_bicycle"/>
    <trip id="bike183" depart="1027.50" departLane="best" from="-5246603#1" to="5243462#9" type="bike_bicycle"/>
    <trip id="bike184" depart="1033.11" departLane="best" departSpeed="max" from="-100813049" to="5248603#5" type="bike_bicycle"/>
    <trip id="bike185" depart="1038.73" departLane="best" from="141913259#3" to="5245321#3" type="bike_bicycle"/>
    <trip id="bike186" depart="1044.34" departLane="best" from="5246282#0" to="48232853#6" type="bike_bicycle"/>
    <trip id="bike187" depart="1049.96" departLane="best" from="-5248097#9" to="-159396225#2" type="bike_bicycle"/>
    <trip id="bike188" depart="1055.57" departLane="best" from="394751651#0" to="-5248257#4" type="bike_bicycle"/>
    <trip id="bike189" depart="1061.19" departLane="best" from="-5247219#8" to="5248097#5" type="bike_bicycle"/>
    <trip id="bike190" depart="1066.80" departLane="best" from="5243462#6" to="-5248103#0" type="bike_bicycle"/>
    <trip id="bike191" depart="1072.42" departLane="best" from="-5247219#5" to="-5248890#3" type="bike_bicycle"/>
    <trip id="bike192" depart="1078.03" departLane="best" from="-5248440#2" to="-5248097#7" type="bike_bicycle"/>
    <trip id="bike193" depart="1083.65" departLane="best" from="-171479232#8" to="-56323061#3" type="bike_bicycle"/>
    <trip id="bike194" depart="1089.26" departLane="best" from="5248804#1" to="49682101#10" type="bike_bicycle"/>
    <trip id="bike195" depart="1094.88" departLane="best" from="5248440#4" to="316333792#0" type="bike_bicycle"/>
    <trip id="bike196" depart="1100.49" departLane="best" from="-5247010#2" to="159396225#8" type="bike_bicycle"/>
    <trip id="bike197" depart="1106.11" departLane="best" departSpeed="max" from="-100813049" to="-5248097#10" type="bike_bicycle"/>
    <trip id="bike198" depart="1111.72" departLane="best" from="-5248603#2" to="238902094#2" type="bike_bicycle"/>
    <trip id="bike199" depart="1117.33" departLane="best" departSpeed="max" from="332073132" to="100974465" type="bike_bicycle"/>
    <trip id="bike200" depart="1122.95" departLane="best" from="-5248804#1" to="-5246845#2" type="bike_bicycle"/>
    <trip id="bike201" depart="1128.56" departLane="best" from="-5248890#3" to="5248465#2" type="bike_bicycle"/>
    <trip id="bike202" depart="1134.18" departLane="best" from="5247010#1" to="-5244856#0" type="bike_bicycle"/>
    <trip id="bike203" depart="1139.79" departLane="best" from="-159396225#1" to="159396202" type="bike_bicycle"/>
    <trip id="bike204" depart="1145.41" departLane="best" from="238902094#6" to="-5248257#7" type="bike_bicycle"/>
    <trip id="bike205" depart="1151.02" departLane="best" from="5247714#1" to="5246845#13" type="bike_bicycle"/>
    <trip id="bike206" depart="1156.64" departLane="best" from="40535422#1" to="-5246845#9" type="bike_bicycle"/>
    <trip id="bike207" depart="1162.25" departLane="best" from="-48232853#5" to="-141913259#1" type="bike_bicycle"/>
    <trip id="bike208" depart="1167.87" departLane="best" from="-5246282#1" to="123435724#0" type="bike_bicycle"/>
    <trip id="bike209" depart="1173.48" departLane="best" from="5248097#4" to="-159396225#5" type="bike_bicycle"/>
    <trip id="bike210" depart="1179.10" departLane="best" from="-5248600#0" to="346414619" type="bike_bicycle"/>
    <trip id="bike211" depart="1184.71" departLane="best" from="-48232853#2" to="5243462#2" type="bike_bicycle"/>
    <trip id="bike212" depart="1190.33" departLane="best" from="-93014830" to="-5247010#2" type="bike_bicycle"/>
    <trip id="bike213" depart="1195.94" departLane="best" departSpeed="max" from="332073132" to="-123435724#1" type="bike_bicycle"/>
    <trip id="bike214" depart="1201.56" departLane="best" departSpeed="max" from="5246603#0" to="5246845#9" type="bike_bicycle"/>
    <trip id="bike215" depart="1207.17" departLane="best" from="-161730983#4" to="-92994210" type="bike_bicycle"/>
    <trip id="bike216" depart="1212.79" departLane="best" from="-394751652#1" to="5248873#6" type="bike_bicycle"/>
    <trip id="bike217" depart="1218.40" departLane="best" from="123435724#2" to="-159396209" type="bike_bicycle"/>
    <trip id="bike218" depart="1224.02" departLane="best" from="-5246282#3" to="5248097#6" type="bike_bicycle"/>
    <trip id="bike219" depart="1229.63" departLane="best" from="-5248873#0" to="5247219#8" type="bike_bicycle"/>
    <trip id="bike220" depart="1235.24" departLane="best" departSpeed="max" from="394751652#0" to="93014822" type="bike_bicycle"/>
    <trip id="bike221" depart="1240.86" departLane="best" from="161730983#2" to="5248873#2" type="bike_bicycle"/>
    <trip id="bike222" depart="1246.47" departLane="best" from="5248257#6" to="315938881" type="bike_bicycle"/>
    <trip id="bike223" depart="1252.09" departLane="best" from="5243462#6" to="159396197#1" type="bike_bicycle"/>
    <trip id="bike224" depart="1257.70" departLane="best" from="5247714#8" to="159396225#8" type="bike_bicycle"/>
    <trip id="bike225" depart="1263.32" departLane="best" from="5248440#1" to="5246603#1" type="bike_bicycle"/>
    <trip id="bike226" depart="1268.93" departLane="best" from="-5248890#4" to="-5247709" type="bike_bicycle"/>
    <trip id="bike227" depart="1274.55" departLane="best" from="-5246282#2" to="394751651#1" type="bike_bicycle"/>
    <trip id="bike228" depart="1280.16" departLane="best" from="5246845#14" to="159396212#1" type="bike_bicycle"/>
    <trip id="bike229" depart="1285.78" departLane="best" from="238902094#2" to="-5247714#7" type="bike_bicycle"/>
    <trip id="bike230" depart="1291.39" departLane="best" departSpeed="max" from="-159396212#3" to="-5248097#1" type="bike_bicycle"/>
    <trip id="bike231" depart="1297.01" departLane="best" from="-5246845#3" to="-5248103#8" type="bike_bicycle"/>
    <trip id="bike232" depart="1302.62" departLane="best" from="141913259#4" to="-424417969#2" type="bike_bicycle"/>
    <trip id="bike233" depart="1308.24" departLane="best" from="-5245321#3" to="5243462#1" type="bike_bicycle"/>
    <trip id="bike234" depart="1313.85" departLane="best" from="49682101#8" to="-159396225#1" type="bike_bicycle"/>
    <trip id="bike235" depart="1319.47" departLane="best" from="-5248465#0" to="159396225#5" type="bike_bicycle"/>
    <trip id="bike236" depart="1325.08" departLane="best" from="-5248600#1" to="-5246845#11" type="bike_bicycle"/>
    <trip id="bike237" depart="1330.70" departLane="best" from="-5248600#4" to="5248600#0" type="bike_bicycle"/>
    <trip id="bike238" depart="1336.31" departLane="best" from="159396225#4" to="5243462#2" type="bike_bicycle"/>
    <trip id="bike239" depart="1341.92" departLane="best" from="5248097#9" to="5246845#6" type="bike_bicycle"/>
    <trip id="bike240" depart="1347.54" departLane="best" from="-5248103#8" to="-123435724#1" type="bike_bicycle"/>
    <trip id="bike241" depart="1353.15" departLane="best" departSpeed="max" from="-5248097#11" to="5246845#14" type="bike_bicycle"/>
    <trip id="bike242" depart="1358.77" departLane="best" from="5248097#7" to="5248873#4" type="bike_bicycle"/>
    <trip id="bike243" depart="1364.38" departLane="best" from="-5248600#3" to="5246845#11" type="bike_bicycle"/>
    <trip id="bike244" depart="1370.00" departLane="best" from="141913259#7" to="315928580" type="bike_bicycle"/>
    <trip id="bike245" depart="1375.61" departLane="best" departSpeed="max" from="-5243462#9" to="-5246845#6" type="bike_bicycle"/>
    <trip id="bike246" depart="1381.23" departLane="best" from="-5248603#6" to="-141913259#4" type="bike_bicycle"/>
    <trip id="bike247" depart="1386.84" departLane="best" departSpeed="max" from="-5247714#9" to="49682101#2" type="bike_bicycle"/>
    <trip id="bike248" depart="1392.46" departLane="best" from="-5248440#3" to="-5243462#6" type="bike_bicycle"/>
    <trip id="bike249" depart="1398.07" departLane="best" departSpeed="max" from="-5248873#6" to="-332073132" type="bike_bicycle"/>
    <trip id="bike250" depart="1403.69" departLane="best" departSpeed="max" from="238902094#0" to="-141913259#2" type="bike_bicycle"/>
    <trip id="bike251" depart="1409.30" departLane="best" from="-5248257#6" to="161730983#9" type="bike_bicycle"/>
    <trip id="bike252" depart="1414.92" departLane="best" from="-123435724#0" to="40535422#0" type="bike_bicycle"/>
    <trip id="bike253" depart="1420.53" departLane="best" departSpeed="max" from="-286524721" to="100974463#1" type="bike_bicycle"/>
    <trip id="bike254" depart="1426.15" departLane="best" from="-141913259#4" to="-5248605#2" type="bike_bicycle"/>