<?xml version="1.0" encoding="UTF-8"?>

<!-- generated on 01/27/19 19:18:41 by Eclipse SUMO polyconvert Version v1_1_0+0008-ffcb6ceee0
<configuration xmlns:xsi="http://www.w3.org/2001/XMLSchema-instance" xsi:noNamespaceSchemaLocation="http://sumo.dlr.de/xsd/polyconvertConfiguration.xsd">

    <input>
        <net-file value="osm.net.xml"/>
        <osm-files value="osm_bbox.osm.xml"/>
        <osm.keep-full-type value="true"/>
        <type-file value="C:\Sumo\data\typemap\osmPolyconvert.typ.xml"/>
    </input>

    <output>
        <output-file value="osm.poly.xml"/>
    </output>

    <processing>
        <poi-layer-offset value="5"/>
    </processing>

    <report>
        <verbose value="true"/>
    </report>

</configuration>
-->

<additional xmlns:xsi="http://www.w3.org/2001/XMLSchema-instance" xsi:noNamespaceSchemaLocation="http://sumo.dlr.de/xsd/additional_file.xsd">
    <location netOffset="-477307.88,-4933802.32" convBoundary="-96.64,-0.00,2296.37,3636.53" origBoundary="-123.286989,44.557235,-123.256855,44.589960" projParameter="+proj=utm +zone=10 +ellps=WGS84 +datum=WGS84 +units=m +no_defs"/>

    <poly id="100813014" type="amenity.parking" color="184,184,179" fill="1" layer="-1.00" shape="494.948691,1272.457714 495.020413,1270.213648 496.101420,1238.063331 466.072669,1236.477791 466.162626,1221.026224 485.818339,1221.825294 498.817929,1222.069588 545.342229,1224.498658 546.365818,1184.761772 590.488799,1186.166325 590.314192,1195.508765 619.917939,1195.830014 618.893059,1218.993725 599.297331,1219.482578 577.580051,1219.556622 576.397772,1238.433182 576.058018,1262.205506 528.982651,1261.088847 528.082738,1274.254930 524.715347,1274.077607 494.948691,1272.457714"/>
    <poly id="100974457" type="building.yes" color="255,230,230" fill="1" layer="-1.00" shape="937.179199,1167.909565 964.694236,1158.630965 972.810331,1182.552651 960.452809,1186.726243 962.008650,1191.308639 954.005587,1194.001392 951.334942,1186.123656 944.180583,1188.535875 937.179199,1167.909565"/>
    <poly id="100974468" type="building.yes" color="255,230,230" fill="1" layer="-1.00" shape="864.120436,1237.258105 876.278696,1237.628177 877.566420,1240.389740 880.113146,1239.736906 882.692139,1246.315284 880.567644,1247.377693 888.091550,1267.513436 883.833249,1269.227286 885.343202,1274.320787 881.512979,1275.822146 882.136481,1277.053038 882.799946,1278.361553 903.675339,1278.291359 903.880473,1275.535881 911.616023,1275.976425 914.605902,1284.330718 901.376447,1291.251035 880.080253,1291.322652 877.937853,1289.419281 869.845819,1289.224354 866.065072,1300.700557 868.195269,1301.337651 865.236081,1309.189874 855.217604,1305.191402 855.151440,1299.693155 853.277467,1299.688360 853.256737,1293.534588 857.520739,1293.520225 857.457812,1274.836750 859.157066,1274.831027 859.982463,1265.275352 863.813435,1263.996138 866.381578,1269.708120 872.543450,1267.354695 866.306561,1247.425689 863.964123,1247.433576 864.120436,1237.258105"/>
    <poly id="100974470" type="building.apartments" color="255,230,230" fill="1" layer="-1.00" shape="971.721846,1246.360740 979.977979,1243.378352 977.429395,1236.366622 989.230702,1232.106058 991.570926,1238.551982 1000.080877,1235.479906 1004.344454,1247.195706 995.913810,1250.234187 998.598621,1257.623141 986.733905,1261.906116 984.225447,1255.016437 975.953483,1258.009981 971.721846,1246.360740"/>
    <poly id="100974472" type="amenity.parking" color="184,184,179" fill="1" layer="-1.00" shape="872.078547,1233.032485 879.145149,1230.520509 882.327493,1239.418432 896.714493,1234.304793 911.616023,1275.976425 914.605902,1284.330718 917.090789,1291.275990 958.713008,1276.495955 942.649530,1231.584574 950.897916,1228.657715 987.785707,1215.559952 977.421451,1186.580522 947.822253,1197.087940 887.632813,1218.473082 877.364333,1189.771187 858.948209,1196.309155 872.078547,1233.032485"/>
    <poly id="100974473" type="building.yes" color="255,230,230" fill="1" layer="-1.00" shape="919.937447,1174.232365 929.178412,1199.672018 918.970369,1203.105346 913.214265,1200.991941 905.470965,1179.368435 919.937447,1174.232365"/>
    <poly id="100974475" type="amenity.place_of_worship" color="237,199,199" fill="1" layer="-1.00" shape="889.937815,1188.440362 895.083520,1202.663536 892.759711,1203.493343 894.338671,1207.853484 889.001091,1209.770904 887.662547,1206.065328 885.537028,1206.827822 880.158825,1191.950064 889.937815,1188.440362"/>
    <poly id="100974475#1" type="building.yes" color="255,230,230" fill="1" layer="-1.00" shape="889.937815,1188.440362 895.083520,1202.663536 892.759711,1203.493343 894.338671,1207.853484 889.001091,1209.770904 887.662547,1206.065328 885.537028,1206.827822 880.158825,1191.950064 889.937815,1188.440362"/>
    <poly id="100974476" type="building.yes" color="255,230,230" fill="1" layer="-1.00" shape="976.712824,1183.639271 974.396387,1177.193274 984.730693,1173.504127 987.047121,1179.950128 976.712824,1183.639271"/>
    <poly id="122613908" type="building.yes" color="255,230,230" fill="1" layer="-1.00" shape="1031.801887,1182.721854 1027.455535,1169.995484 1035.196804,1167.359237 1039.551121,1180.096693 1031.801887,1182.721854"/>
    <poly id="204730193" type="amenity.place_of_worship" color="237,199,199" fill="1" layer="-1.00" shape="656.432662,1302.053984 666.231120,1302.020686 666.550271,1269.750802 659.735936,1269.351852 659.722950,1265.530737 656.142110,1265.631772 656.432662,1302.053984"/>
    <poly id="229188656" type="leisure.park" color="207,245,201" fill="1" layer="-2.00" shape="377.975689,1922.634573 453.365506,1923.219679 496.141107,1922.139981 531.509601,1921.252505 532.838278,1873.283476 535.337561,1731.081024 454.619275,1730.924224 375.398838,1732.262856 375.257544,1753.490792 375.311245,1829.047448 376.775136,1882.949697 377.975689,1922.634573"/>
    <poly id="263547191" type="building.residential" color="255,230,230" fill="1" layer="-1.00" shape="525.966197,1526.103293 526.495191,1518.259218 519.186426,1517.162302 518.854873,1501.478903 527.279382,1501.450093 527.808648,1491.362196 505.045164,1491.728875 505.097857,1507.124419 504.317565,1525.055445 525.966197,1526.103293"/>
    <poly id="263547196" type="building.residential" color="255,230,230" fill="1" layer="-1.00" shape="509.321638,1569.648156 515.142778,1569.939263 514.964529,1573.538874 520.833305,1573.829823 521.063491,1569.163664 526.217550,1569.423739 526.990752,1554.047585 529.071437,1554.151552 529.420848,1547.196732 525.017433,1548.189295 525.351871,1541.501119 517.251477,1541.095611 517.608094,1533.929713 511.111898,1533.607589 509.321638,1569.648156"/>
    <poly id="263547197" type="building.residential" color="255,230,230" fill="1" layer="-1.00" shape="504.933490,1605.253295 527.800327,1605.041771 527.734078,1597.277486 519.349546,1597.350592 519.250956,1587.098220 521.489976,1587.068346 521.461255,1583.313931 525.518549,1583.277839 525.468253,1577.857294 503.077723,1578.067194 503.166954,1587.897493 511.432397,1587.824774 511.520513,1597.332944 504.858970,1597.400174 504.933490,1605.253295"/>
    <poly id="263547444" type="building.residential" color="255,230,230" fill="1" layer="-1.00" shape="560.598698,1511.344585 582.455293,1508.170863 577.853513,1476.628660 555.996814,1479.802397 560.598698,1511.344585"/>
    <poly id="263547445" type="building.residential" color="255,230,230" fill="1" layer="-1.00" shape="577.102319,1449.616506 557.273118,1448.962161 557.654657,1437.452945 564.309411,1437.674602 564.734169,1424.865600 572.770690,1425.126983 572.396495,1436.469552 577.526533,1436.640886 577.102319,1449.616506"/>
    <poly id="263547446" type="building.residential" color="255,230,230" fill="1" layer="-1.00" shape="551.121372,1598.330581 577.347876,1596.074989 575.950754,1579.884252 566.266607,1580.717077 565.654625,1573.565597 554.303548,1574.548534 555.535134,1588.751495 550.327940,1589.202493 551.121372,1598.330581"/>
    <poly id="263548361" type="building.residential" color="255,230,230" fill="1" layer="-1.00" shape="602.898909,1588.989814 609.640013,1588.966846 612.728693,1588.956325 612.876381,1590.355433 624.540314,1590.315715 624.534113,1588.494020 628.329458,1588.481101 628.724572,1580.926298 624.785356,1580.662006 625.059741,1577.295340 621.827642,1577.161939 621.951656,1573.940190 615.909754,1574.105167 615.506559,1579.282881 610.170836,1579.301055 610.006461,1573.003364 605.647361,1573.018214 605.658829,1576.383907 602.855985,1576.393458 602.898909,1588.989814"/>
    <poly id="293601460" type="amenity.bank" color="237,199,199" fill="1" layer="-1.00" shape="506.626372,1387.641267 530.583051,1387.792594 530.709406,1369.008493 506.752620,1368.846058 506.626372,1387.641267"/>
    <poly id="293601460#1" type="building.yes" color="255,230,230" fill="1" layer="-1.00" shape="506.626372,1387.641267 530.583051,1387.792594 530.709406,1369.008493 506.752620,1368.846058 506.626372,1387.641267"/>
    <poly id="305821351" type="building.yes" color="255,230,230" fill="1" layer="-1.00" shape="588.098407,1258.287743 618.974073,1249.784881 613.925422,1231.584919 583.049675,1240.087804 588.098407,1258.287743"/>
    <poly id="305821499" type="building.yes" color="255,230,230" fill="1" layer="-1.00" shape="715.244298,1211.979361 721.437112,1216.412686 774.006223,1198.317513 768.649587,1182.851049 735.417060,1194.293692 732.422766,1191.748989 732.299962,1150.805252 732.238924,1146.851004 731.770359,1139.799000 714.341266,1140.013573 715.244298,1211.979361"/>
    <poly id="305824062" type="amenity.parking" color="184,184,179" fill="1" layer="-1.00" shape="891.001558,1138.761738 829.462234,1160.263035 827.055528,1160.060099 826.998252,1150.140834 821.336688,1150.182146 821.853160,1147.925477 821.728332,1101.505499 847.233730,1101.430619 847.232389,1098.675836 854.054381,1098.941661 860.307413,1116.537914 856.999986,1117.682070 861.996555,1132.383364 869.126265,1129.715654 869.679738,1131.368885 879.958512,1127.690866 879.460513,1126.004123 886.797179,1123.480140 901.089339,1118.422372 908.448852,1139.236276 906.473919,1139.920501 894.683463,1145.080926 893.382699,1145.529620 891.001558,1138.761738"/>
    <poly id="305824129" type="amenity.parking" color="184,184,179" fill="1" layer="-1.00" shape="682.703474,1228.285244 705.401816,1220.143803 705.206561,1139.155904 682.480482,1139.210800 682.703474,1228.285244"/>
    <poly id="306961327" type="amenity.parking" color="184,184,179" fill="1" layer="-1.00" shape="1081.129341,1063.679283 1108.599221,1062.110411 1132.867018,1057.564247 1154.352287,1049.639474 1174.983748,1040.451293 1189.048172,1031.251631 1203.026343,1019.975088 1222.136266,1002.083422 1231.458096,985.068414 1233.541964,971.687474 1234.130172,957.467277 1234.535081,950.245732 1236.008292,944.298072 1240.888826,938.550191 1256.887416,930.621701 1249.911744,915.149097 1234.016356,923.077261 1223.818273,929.698069 1218.944774,937.567569 1216.633167,946.917060 1217.108366,960.922685 1215.441858,973.235879 1212.699369,981.953643 1205.922722,993.006350 1195.097745,1004.505698 1182.989407,1014.520849 1180.756048,1016.316648 1177.683183,1018.781715 1166.416112,1026.250371 1152.349169,1032.295416 1143.024087,1036.303071 1118.554519,1044.671023 1108.782751,1045.681051 1095.137176,1047.081669 1075.112808,1047.781560 1081.129341,1063.679283"/>
    <poly id="307173408" type="amenity.place_of_worship" color="237,199,199" fill="1" layer="-1.00" shape="674.911535,1258.025655 677.230073,1257.995565 677.210533,1256.918154 691.232893,1256.726147 691.254466,1258.403385 693.835038,1258.372412 693.937661,1265.214604 691.301545,1265.256874 691.344239,1268.478055 681.299917,1268.612121 681.249089,1265.335428 677.922192,1265.391156 677.902049,1264.136018 675.003861,1264.168077 674.911535,1258.025655"/>
    <poly id="307173408#1" type="building.yes" color="255,230,230" fill="1" layer="-1.00" shape="674.911535,1258.025655 677.230073,1257.995565 677.210533,1256.918154 691.232893,1256.726147 691.254466,1258.403385 693.835038,1258.372412 693.937661,1265.214604 691.301545,1265.256874 691.344239,1268.478055 681.299917,1268.612121 681.249089,1265.335428 677.922192,1265.391156 677.902049,1264.136018 675.003861,1264.168077 674.911535,1258.025655"/>
    <poly id="307524496" type="amenity.place_of_worship" color="237,199,199" fill="1" layer="-1.00" shape="697.703601,1254.138239 708.122014,1254.258414 708.067387,1259.223884 707.201840,1259.215711 707.154062,1263.859025 708.210179,1263.866552 708.155892,1268.931993 698.063098,1268.821821 698.116323,1263.445359 699.093036,1263.453154 699.135430,1259.565203 697.642549,1259.548052 697.703601,1254.138239"/>
    <poly id="307524496#1" type="building.yes" color="255,230,230" fill="1" layer="-1.00" shape="697.703601,1254.138239 708.122014,1254.258414 708.067387,1259.223884 707.201840,1259.215711 707.154062,1263.859025 708.210179,1263.866552 708.155892,1268.931993 698.063098,1268.821821 698.116323,1263.445359 699.093036,1263.453154 699.135430,1259.565203 697.642549,1259.548052 697.703601,1254.138239"/>
    <poly id="307648090" type="amenity.place_of_worship" color="237,199,199" fill="1" layer="-1.00" shape="575.609304,1731.143437 597.285019,1731.025084 598.621996,1734.252964 605.443067,1734.440771 617.095275,1749.685726 617.028562,1760.405202 624.166820,1760.480868 624.217900,1761.491524 628.108082,1761.378309 628.027059,1770.231685 626.216778,1770.237847 626.226193,1773.003714 627.615474,1772.943445 627.530860,1780.741570 626.046114,1780.746624 626.058026,1784.245613 627.757146,1784.239829 627.770871,1788.271997 623.832727,1788.285404 623.843580,1791.473371 627.726522,1791.571233 627.600585,1801.224540 622.170108,1801.343000 622.090377,1808.241358 621.240820,1808.244251 621.382352,1819.496204 623.621367,1819.488580 623.443488,1830.208435 616.837611,1830.230930 616.802268,1833.841160 610.672401,1833.750959 610.659762,1830.040920 598.575263,1830.026559 598.596312,1819.895963 608.497923,1820.073274 608.467533,1811.153628 550.329925,1810.607726 550.423011,1807.641563 586.098621,1808.152953 586.519138,1775.471693 575.656019,1775.086644 570.637629,1770.327316 570.673858,1766.983675 575.079858,1762.136647 575.609304,1731.143437"/>
    <poly id="307648090#1" type="building.yes" color="255,230,230" fill="1" layer="-1.00" shape="575.609304,1731.143437 597.285019,1731.025084 598.621996,1734.252964 605.443067,1734.440771 617.095275,1749.685726 617.028562,1760.405202 624.166820,1760.480868 624.217900,1761.491524 628.108082,1761.378309 628.027059,1770.231685 626.216778,1770.237847 626.226193,1773.003714 627.615474,1772.943445 627.530860,1780.741570 626.046114,1780.746624 626.058026,1784.245613 627.757146,1784.239829 627.770871,1788.271997 623.832727,1788.285404 623.843580,1791.473371 627.726522,1791.571233 627.600585,1801.224540 622.170108,1801.343000 622.090377,1808.241358 621.240820,1808.244251 621.382352,1819.496204 623.621367,1819.488580 623.443488,1830.208435 616.837611,1830.230930 616.802268,1833.841160 610.672401,1833.750959 610.659762,1830.040920 598.575263,1830.026559 598.596312,1819.895963 608.497923,1820.073274 608.467533,1811.153628 550.329925,1810.607726 550.423011,1807.641563 586.098621,1808.152953 586.519138,1775.471693 575.656019,1775.086644 570.637629,1770.327316 570.673858,1766.983675 575.079858,1762.136647 575.609304,1731.143437"/>
    <poly id="314895638" type="leisure.park" color="207,245,201" fill="1" layer="-2.00" shape="1153.757289,1795.455952 1228.542398,1768.881869 1194.315144,1671.244701 1119.291584,1698.042122 1153.757289,1795.455952"/>
    <poly id="315934316" type="building.house" color="255,230,230" fill="1" layer="-1.00" shape="880.678786,1351.215075 892.963099,1346.630576 890.094716,1338.986797 874.907848,1344.658546 880.678786,1351.215075"/>
    <poly id="315934317" type="building.house" color="255,230,230" fill="1" layer="-1.00" shape="884.019859,1362.467366 901.784762,1356.031626 903.723123,1361.023720 885.823097,1367.415477 884.019859,1362.467366"/>
    <poly id="315934318" type="building.apartments" color="255,230,230" fill="1" layer="-1.00" shape="856.400859,1350.019382 863.174918,1347.919369 883.411402,1339.742406 881.264103,1334.017892 892.960450,1329.313183 888.232072,1316.377135 855.689071,1329.649672 859.782277,1342.587836 854.890937,1344.936995 856.400859,1350.019382"/>
    <poly id="315934319" type="building.apartments" color="255,230,230" fill="1" layer="-1.00" shape="891.071542,1400.421967 904.260551,1395.712258 899.099209,1381.511342 905.689725,1379.145398 913.860150,1400.345370 891.730336,1407.428913 888.731326,1401.074103 891.071542,1400.421967"/>
    <poly id="315934340" type="building.house" color="255,230,230" fill="1" layer="-1.00" shape="886.141170,1398.239162 892.209062,1396.308175 887.675277,1382.194021 881.615313,1384.124986 886.141170,1398.239162"/>
    <poly id="315934341" type="building.apartments" color="255,230,230" fill="1" layer="-1.00" shape="897.573648,1378.850546 894.890377,1371.939271 905.262946,1367.927733 907.946208,1374.839012 897.573648,1378.850546"/>
    <poly id="315934342" type="building.house" color="255,230,230" fill="1" layer="-1.00" shape="878.061861,1375.828143 875.752974,1366.916173 881.884976,1365.151581 884.891407,1373.705750 878.061861,1375.828143"/>
    <poly id="315934378" type="amenity.parking" color="184,184,179" fill="1" layer="-1.00" shape="940.942036,1342.737125 949.834080,1339.996940 935.602021,1298.945020 928.083131,1301.536210 932.364802,1313.885061 932.705868,1318.504852 940.942036,1342.737125"/>
    <poly id="315934422" type="building.house" color="255,230,230" fill="1" layer="-1.00" shape="939.781819,1392.160593 934.744503,1377.037268 942.779205,1374.377706 947.816504,1389.501038 939.781819,1392.160593"/>
    <poly id="315934423" type="building.apartments" color="255,230,230" fill="1" layer="-1.00" shape="925.977053,1348.285822 940.942036,1342.737125 937.376522,1333.196193 927.502927,1336.850548 929.714378,1342.774806 924.622938,1344.658046 925.977053,1348.285822"/>
    <poly id="315934424" type="building.apartments" color="255,230,230" fill="1" layer="-1.00" shape="917.948013,1331.361948 924.157636,1329.052843 925.768084,1333.346238 936.736038,1329.266104 932.705868,1318.504852 915.528269,1324.894101 917.948013,1331.361948"/>
    <poly id="315934425" type="building.house" color="255,230,230" fill="1" layer="-1.00" shape="929.161966,1362.715554 925.939148,1353.551150 937.137935,1349.647969 939.567079,1356.560113 936.244477,1360.248017 929.161966,1362.715554"/>
    <poly id="315934514" type="building.apartments" color="255,230,230" fill="1" layer="-1.00" shape="914.014404,1320.989164 909.761039,1309.984300 928.083131,1301.536210 932.364802,1313.885061 914.014404,1320.989164"/>
    <poly id="315934745" type="building.house" color="255,230,230" fill="1" layer="-1.00" shape="658.214923,1438.609951 656.035690,1425.876456 684.612358,1421.014038 686.791536,1433.747543 658.214923,1438.609951"/>
    <poly id="315934746" type="building.apartments" color="255,230,230" fill="1" layer="-1.00" shape="600.251901,1452.992169 635.193936,1447.363605 635.568809,1410.517016 622.737332,1410.560686 623.578668,1436.117384 598.440488,1438.713423 600.251901,1452.992169"/>
    <poly id="315935168" type="building.house" color="255,230,230" fill="1" layer="-1.00" shape="579.142645,1458.829206 577.610056,1451.814163 590.169199,1448.772164 591.960103,1457.030429 579.142645,1458.829206"/>
    <poly id="315935631" type="building.house" color="255,230,230" fill="1" layer="-1.00" shape="859.365326,1372.036600 857.223300,1365.523407 865.337426,1362.874590 867.487348,1369.376651 859.365326,1372.036600"/>
    <poly id="315935632" type="building.house" color="255,230,230" fill="1" layer="-1.00" shape="861.211595,1373.252265 869.975061,1370.079190 872.449818,1376.369107 864.043074,1379.363249 861.211595,1373.252265"/>
    <poly id="315935633" type="building.house" color="255,230,230" fill="1" layer="-1.00" shape="852.641520,1386.688511 869.078837,1379.823940 872.096560,1387.011779 855.667198,1393.876315 852.641520,1386.688511"/>
    <poly id="315935634" type="building.house" color="255,230,230" fill="1" layer="-1.00" shape="854.664430,1350.769468 857.479625,1359.113216 872.938060,1353.929264 871.943513,1350.977878 864.995515,1353.300628 863.174918,1347.919369 854.664430,1350.769468"/>
    <poly id="315935635" type="building.house" color="255,230,230" fill="1" layer="-1.00" shape="875.708385,1358.385364 878.165989,1364.297669 867.929164,1368.530954 865.337426,1362.874590 875.708385,1358.385364"/>
    <poly id="315935636" type="building.house" color="255,230,230" fill="1" layer="-1.00" shape="937.160557,1375.318524 934.291903,1367.574754 941.136015,1365.052483 944.004699,1372.807364 937.160557,1375.318524"/>
    <poly id="315935637" type="building.house" color="255,230,230" fill="1" layer="-1.00" shape="944.664791,1318.675776 955.566353,1313.729471 949.031110,1299.455367 938.137505,1304.412765 944.664791,1318.675776"/>
    <poly id="315935638" type="building.house" color="255,230,230" fill="1" layer="-1.00" shape="957.223846,1313.112972 968.665337,1308.153771 962.415748,1293.812049 950.974236,1298.771261 957.223846,1313.112972"/>
    <poly id="315935639" type="amenity.parking" color="184,184,179" fill="1" layer="-1.00" shape="955.682030,1447.691791 944.646535,1419.747700 975.065658,1407.793468 985.149813,1436.218439 955.682030,1447.691791"/>
    <poly id="315935647" type="building.church" color="255,230,230" fill="1" layer="-1.00" shape="987.478589,1434.522222 978.539352,1408.914850 998.145175,1402.117751 1007.076441,1427.736284 987.478589,1434.522222"/>
    <poly id="315936990" type="building.house" color="255,230,230" fill="1" layer="-1.00" shape="702.302746,1434.850143 700.258142,1424.326673 708.805538,1423.042476 712.109237,1432.561957 702.302746,1434.850143"/>
    <poly id="315936991" type="building.house" color="255,230,230" fill="1" layer="-1.00" shape="724.670135,1430.008967 722.126196,1419.742667 730.418686,1418.214986 732.217057,1428.728191 724.670135,1430.008967"/>
    <poly id="315936992" type="building.house" color="255,230,230" fill="1" layer="-1.00" shape="724.115545,1413.970862 722.323932,1405.457081 731.620604,1402.670791 733.414764,1411.939912 724.115545,1413.970862"/>
    <poly id="315936993" type="building.house" color="255,230,230" fill="1" layer="-1.00" shape="553.773200,1395.999944 551.977072,1386.231017 561.275406,1383.944339 565.338788,1394.960736 553.773200,1395.999944"/>
    <poly id="315936994" type="building.house" color="255,230,230" fill="1" layer="-1.00" shape="576.650538,1391.667486 574.854405,1381.887445 581.385867,1380.865442 580.876232,1378.112391 586.407219,1377.093806 589.720475,1389.356875 576.650538,1391.667486"/>
    <poly id="315936995" type="building.house" color="255,230,230" fill="1" layer="-1.00" shape="601.039675,1390.573499 600.979036,1372.778653 610.534902,1371.490890 610.088465,1387.288019 605.808644,1387.302599 606.830723,1391.309113 601.039675,1390.573499"/>
    <poly id="315936996" type="building.house" color="255,230,230" fill="1" layer="-1.00" shape="623.654427,1383.731688 619.580057,1369.460642 630.888438,1365.156669 635.213207,1380.682076 623.654427,1383.731688"/>
    <poly id="315936997" type="building.house" color="255,230,230" fill="1" layer="-1.00" shape="663.726654,1368.843945 663.170241,1366.335423 659.036466,1367.271437 657.311185,1359.612766 680.796994,1354.356642 683.086518,1364.501601 663.726654,1368.843945"/>
    <poly id="315936998" type="building.house" color="255,230,230" fill="1" layer="-1.00" shape="659.422726,1399.150148 657.629325,1390.136529 669.697118,1387.329625 671.738387,1396.853374 659.422726,1399.150148"/>
    <poly id="315936999" type="building.house" color="255,230,230" fill="1" layer="-1.00" shape="663.492763,1412.177136 662.473251,1408.914841 659.456816,1409.180577 658.936117,1403.161798 672.262752,1401.616935 672.538707,1410.391335 663.492763,1412.177136"/>
    <poly id="315938882" type="amenity.place_of_worship" color="237,199,199" fill="1" layer="-1.00" shape="659.145644,1385.377142 656.902976,1375.009872 670.756802,1372.030279 672.999449,1382.397554 659.145644,1385.377142"/>
    <poly id="315938882#1" type="building.yes" color="255,230,230" fill="1" layer="-1.00" shape="659.145644,1385.377142 656.902976,1375.009872 670.756802,1372.030279 672.999449,1382.397554 659.145644,1385.377142"/>
    <poly id="315938883" type="building.apartments" color="255,230,230" fill="1" layer="-1.00" shape="567.992735,1360.605670 592.140988,1361.023164 591.809155,1338.219524 584.264943,1337.989763 584.523935,1341.754499 580.748857,1340.767652 581.273877,1348.030508 577.256061,1348.044213 576.981432,1342.024602 568.170462,1340.555082 567.992735,1360.605670"/>
    <poly id="315938884" type="building.apartments" color="255,230,230" fill="1" layer="-1.00" shape="604.678931,1351.705235 605.147830,1340.173510 623.239894,1336.601760 622.934866,1319.307609 634.757264,1319.022997 636.862546,1347.341290 604.678931,1351.705235"/>
    <poly id="315938885" type="building.apartments" color="255,230,230" fill="1" layer="-1.00" shape="671.249588,1325.419346 672.124059,1288.315586 693.250086,1287.233033 693.134088,1325.589422 671.249588,1325.419346"/>
    <poly id="315938886" type="building.yes" color="255,230,230" fill="1" layer="-1.00" shape="552.144706,1360.915259 552.320043,1337.854404 564.645187,1338.312185 565.222432,1360.870609 552.144706,1360.915259"/>
    <poly id="315938887" type="building.apartments" color="255,230,230" fill="1" layer="-1.00" shape="722.696392,1388.838217 732.249699,1386.795297 730.446198,1374.771419 712.597773,1377.586699 715.904012,1387.850410 720.679855,1386.590123 722.696392,1388.838217"/>
    <poly id="315955658" type="building.house" color="255,230,230" fill="1" layer="-1.00" shape="724.655450,1371.780765 732.191978,1369.755788 730.649338,1359.730470 721.346657,1360.761713 724.655450,1371.780765"/>
    <poly id="316166334" type="leisure.swimming_pool" color="207,245,201" fill="1" layer="-2.00" shape="702.175161,1673.439843 702.150329,1666.119738 720.037244,1665.525898 719.960644,1673.379532 702.175161,1673.439843"/>
    <poly id="316166401" type="amenity.parking" color="184,184,179" fill="1" layer="-1.00" shape="694.821938,1640.462845 736.459951,1640.532733 735.759269,1654.020250 701.472286,1653.492211 701.437097,1675.886113 719.754549,1675.823997 719.806698,1691.208437 695.863852,1694.799777 694.821938,1640.462845"/>
    <poly id="316167408" type="amenity.parking" color="184,184,179" fill="1" layer="-1.00" shape="678.785100,1697.201548 688.023395,1696.059379 689.703340,1655.309432 680.040849,1655.475533 678.785100,1697.201548"/>
    <poly id="316330319" type="building.apartments" color="255,230,230" fill="1" layer="-1.00" shape="600.482937,1704.843668 627.091729,1700.720823 627.790288,1656.352981 609.053399,1656.838891 608.883863,1670.002482 614.633107,1670.193950 614.436094,1675.293206 616.349621,1675.286689 616.169928,1683.140677 614.033366,1682.936901 614.057920,1690.145928 599.159749,1691.685164 600.482937,1704.843668"/>
    <poly id="316330377" type="landuse.residential" color="235,235,227" fill="1" layer="-3.00" shape="617.067237,1650.524451 627.499647,1650.277879 628.036618,1619.084711 617.177553,1619.965892 617.067237,1650.524451"/>
    <poly id="316330432" type="building.apartments" color="255,230,230" fill="1" layer="-1.00" shape="653.268506,1648.923901 680.956643,1649.251928 681.545713,1635.664811 653.858953,1635.758882 653.268506,1648.923901"/>
    <poly id="316330475" type="building.apartments" color="255,230,230" fill="1" layer="-1.00" shape="654.151855,1628.493236 659.693599,1628.363318 659.632809,1626.830617 665.119504,1626.856402 665.114635,1625.423484 670.649008,1625.460220 670.699720,1624.027112 676.186266,1624.008476 676.229756,1622.786445 681.930495,1622.711546 681.870087,1621.289924 687.245287,1621.216134 687.313762,1608.641616 681.828825,1609.137883 681.888366,1610.304024 676.776612,1610.799027 676.725521,1612.121056 671.089387,1612.517873 671.037581,1613.628852 665.766312,1613.913354 665.769747,1614.924172 660.077470,1615.154570 659.914694,1616.321466 654.221852,1616.385249 654.151855,1628.493236"/>
    <poly id="316330829" type="building.residential" color="255,230,230" fill="1" layer="-1.00" shape="657.232432,1693.842397 657.430238,1679.623449 654.746387,1679.588140 654.842035,1672.689730 657.438550,1672.725335 657.630041,1658.984055 667.539684,1659.116997 667.502121,1662.082968 676.498626,1662.207919 676.363691,1671.572444 670.519548,1671.492324 670.379323,1681.634429 675.596164,1681.705572 675.480145,1689.625990 667.984438,1689.529265 667.920173,1693.983803 657.232432,1693.842397"/>
    <poly id="316330830" type="building.residential" color="255,230,230" fill="1" layer="-1.00" shape="706.372247,1639.723853 706.521327,1636.857477 698.216095,1636.885651 698.069834,1624.200781 707.598033,1624.223999 707.646040,1621.991123 716.109904,1621.906884 715.960104,1624.562210 728.044796,1624.521251 727.499315,1636.941873 717.113428,1636.865993 717.020112,1639.787720 706.372247,1639.723853"/>
    <poly id="316331288" type="building.apartments" color="255,230,230" fill="1" layer="-1.00" shape="721.334130,1687.393207 721.036319,1662.778829 702.936788,1663.895464 703.120947,1654.986202 730.380296,1655.315894 730.067338,1687.152559 721.334130,1687.393207"/>
    <poly id="316331982" type="building.residential" color="255,230,230" fill="1" layer="-1.00" shape="585.875350,1651.885957 565.101836,1651.212597 564.749808,1641.127709 576.033232,1638.967569 577.004866,1644.484944 577.442303,1647.027190 587.133042,1645.827793 583.768485,1627.799830 571.952338,1629.750722 571.413118,1627.630929 564.603855,1628.609459 565.032296,1630.840711 555.351261,1632.562184 554.922235,1662.710838 585.912247,1662.705051 585.875350,1651.885957"/>
    <poly id="316332076" type="amenity.parking" color="184,184,179" fill="1" layer="-1.00" shape="550.096040,1714.246361 588.198827,1709.228785 587.618103,1664.665354 550.349377,1665.214655 550.096040,1714.246361"/>