<?xml version="1.0" encoding="UTF-8"?>
<!-- generated on 2019-01-27 19:18:43.670388 by $Id$ via randomTrips.py
  options: 
-->
<routes xmlns:xsi="http://www.w3.org/2001/XMLSchema-instance" xsi:noNamespaceSchemaLocation="http://sumo.dlr.de/xsd/routes_file.xsd">
    <vType id="moto_motorcycle" vClass="motorcycle">
    </vType>
    <trip id="moto0" depart="0.00" departLane="best" from="48232853#4" to="-141913259#4" type="moto_motorcycle"/>
    <trip id="moto1" depart="9.03" departLane="best" from="-5247219#6" to="-5246897#2" type="moto_motorcycle"/>
    <trip id="moto2" depart="18.05" departLane="best" from="5246845#13" to="5245321#4" type="moto_motorcycle"/>
    <trip id="moto3" depart="27.08" departLane="best" from="5248257#3" to="-171479232#0" type="moto_motorcycle"/>
    <trip id="moto4" depart="36.11" departLane="best" from="-5248603#2" to="-141913259#6" type="moto_motorcycle"/>
    <trip id="moto5" depart="45.14" departLane="best" departSpeed="max" from="-5246845#15" to="159396209" type="moto_motorcycle"/>
    <trip id="moto6" depart="54.16" departLane="best" from="-141913259#7" to="-5246845#14" type="moto_motorcycle"/>
    <trip id="moto7" depart="63.19" departLane="best" from="49682101#3" to="161731011" type="moto_motorcycle"/>
    <trip id="moto8" depart="72.22" departLane="best" departSpeed="max" from="-5246845#15" to="424417969#5" type="moto_motorcycle"/>
    <trip id="moto9" depart="81.24" departLane="best" from="5247714#4" to="-123435765#1" type="moto_motorcycle"/>
    <trip id="moto10" depart="90.27" departLane="best" from="5247714#2" to="5246282#4" type="moto_motorcycle"/>
    <trip id="moto11" depart="99.30" departLane="best" from="-5248097#7" to="-5245321#3" type="moto_motorcycle"/>
    <trip id="moto12" depart="108.33" departLane="best" from="5248804#5" to="-5248103#9" type="moto_motorcycle"/>
    <trip id="moto13" depart="117.35" departLane="best" from="-171479232#4" to="-171479232#7" type="moto_motorcycle"/>
    <trip id="moto14" depart="126.38" departLane="best" from="5248097#6" to="48232853#4" type="moto_motorcycle"/>
    <trip id="moto15" depart="135.41" departLane="best" from="5247714#3" to="5246845#5" type="moto_motorcycle"/>
    <trip id="moto16" depart="144.43" departLane="best" from="159396197#4" to="5248873#5" type="moto_motorcycle"/>
    <trip id="moto17" depart="153.46" departLane="best" from="-5248257#4" to="171479232#6" type="moto_motorcycle"/>
    <trip id="moto18" depart="162.49" departLane="best" from="5247961#0" to="49682101#10" type="moto_motorcycle"/>
    <trip id="moto19" depart="171.52" departLane="best" from="5248103#10" to="315934747" type="moto_motorcycle"/>
    <trip id="moto20" depart="180.54" departLane="best" from="5245321#7" to="-159396197#6" type="moto_motorcycle"/>
    <trip id="moto21" depart="189.57" departLane="best" from="-5246845#4" to="-5248097#0" type="moto_motorcycle"/>
    <trip id="moto22" depart="198.60" departLane="best" from="-161730983#7" to="-5246897#6" type="moto_motorcycle"/>
    <trip id="moto23" depart="207.62" departLane="best" from="-171479232#8" to="-5247714#8" type="moto_motorcycle"/>
    <trip id="moto24" depart="216.65" departLane="best" from="48232853#3" to="-5248600#1" type="moto_motorcycle"/>
    <trip id="moto25" depart="225.68" departLane="best" from="-5248257#0" to="-5246845#6" type="moto_motorcycle"/>
    <trip id="moto26" depart="234.71" departLane="best" from="-5247219#1" to="5248605#1" type="moto_motorcycle"/>
    <trip id="moto27" depart="243.73" departLane="best" from="49682101#2" to="48232853#6" type="moto_motorcycle"/>
    <trip id="moto28" depart="252.76" departLane="best" from="-5245321#2" to="5246845#4" type="moto_motorcycle"/>
    <trip id="moto29" depart="261.79" departLane="best" from="-5244856#1" to="-5248603#1" type="moto_motorcycle"/>
    <trip id="moto30" depart="270.82" departLane="best" departSpeed="max" from="56323061#0" to="5243462#1" type="moto_motorcycle"/>
    <trip id="moto31" depart="279.84" departLane="best" from="159396219#0" to="5245321#8" type="moto_motorcycle"/>
    <trip id="moto32" depart="288.87" departLane="best" from="5248097#4" to="5247219#6" type="moto_motorcycle"/>
    <trip id="moto33" depart="297.90" departLane="best" from="-5246845#5" to="-141913259#7" type="moto_motorcycle"/>
    <trip id="moto34" depart="306.92" departLane="best" from="-5247826#2" to="-5247714#3" type="moto_motorcycle"/>
    <trip id="moto35" depart="315.95" departLane="best" from="-5246845#11" to="5248804#1" type="moto_motorcycle"/>
    <trip id="moto36" depart="324.98" departLane="best" from="5248103#6" to="-5248103#1" type="moto_motorcycle"/>
    <trip id="moto37" depart="334.01" departLane="best" from="49682101#6" to="-5248605#1" type="moto_motorcycle"/>
    <trip id="moto38" depart="343.03" departLane="best" from="5248600#4" to="123435765#2" type="moto_motorcycle"/>
    <trip id="moto39" depart="352.06" departLane="best" from="-5247219#0" to="-5247219#2" type="moto_motorcycle"/>
    <trip id="moto40" depart="361.09" departLane="best" from="159396219#2" to="-5247714#1" type="moto_motorcycle"/>
    <trip id="moto41" depart="370.11" departLane="best" departSpeed="max" from="171479232#0" to="5248465#0" type="moto_motorcycle"/>
    <trip id="moto42" depart="379.14" departLane="best" departSpeed="max" from="-5248465#2" to="-5246897#0" type="moto_motorcycle"/>
    <trip id="moto43" depart="388.17" departLane="best" from="56323061#2" to="159396212#1" type="moto_motorcycle"/>
    <trip id="moto44" depart="397.20" departLane="best" from="-171479232#3" to="-159396197#7" type="moto_motorcycle"/>
    <trip id="moto45" depart="406.22" departLane="best" from="-424417969#2" to="49682101#5" type="moto_motorcycle"/>
    <trip id="moto46" depart="415.25" departLane="best" from="5247219#5" to="-5248873#3" type="moto_motorcycle"/>
    <trip id="moto47" depart="424.28" departLane="best" from="-159396219#1" to="-5248603#2" type="moto_motorcycle"/>
    <trip id="moto48" depart="433.30" departLane="best" from="56323061#2" to="161730983#3" type="moto_motorcycle"/>
    <trip id="moto49" depart="442.33" departLane="best" from="5248873#4" to="5248103#3" type="moto_motorcycle"/>
    <trip id="moto50" depart="451.36" departLane="best" from="-141913259#0" to="5246845#15" type="moto_motorcycle"/>
    <trip id="moto51" depart="460.39" departLane="best" from="5243462#8" to="161730983#7" type="moto_motorcycle"/>
    <trip id="moto52" depart="469.41" departLane="best" from="-5247219#1" to="5243462#1" type="moto_motorcycle"/>
    <trip id="moto53" depart="478.44" departLane="best" from="-424417969#3" to="-5248890#1" type="moto_motorcycle"/>
    <trip id="moto54" depart="487.47" departLane="best" departSpeed="max" from="-5248804#7" to="5248804#5" type="moto_motorcycle"/>
    <trip id="moto55" depart="496.49" departLane="best" from="5248103#6" to="-5247714#1" type="moto_motorcycle"/>
    <trip id="moto56" depart="505.52" departLane="best" from="123435765#1" to="-5246603#0" type="moto_motorcycle"/>
    <trip id="moto57" depart="514.55" departLane="best" from="5248600#3" to="5248103#8" type="moto_motorcycle"/>
    <trip id="moto58" depart="523.58" departLane="best" from="-5247714#5" to="5243462#0" type="moto_motorcycle"/>
    <trip id="moto59" depart="532.60" departLane="best" from="238902094#4" to="-5245321#2" type="moto_motorcycle"/>
    <trip id="moto60" depart="541.63" departLane="best" from="5246897#1" to="161730983#9" type="moto_motorcycle"/>
    <trip id="moto61" depart="550.66" departLane="best" from="5247010#1" to="161730983#4" type="moto_motorcycle"/>
    <trip id="moto62" depart="559.68" departLane="best" from="-123435765#1" to="-5248103#3" type="moto_motorcycle"/>
    <trip id="moto63" depart="568.71" departLane="best" from="-141913259#3" to="5248603#3" type="moto_motorcycle"/>
    <trip id="moto64" depart="577.74" departLane="best" from="5248103#7" to="5248097#11" type="moto_motorcycle"/>
    <trip id="moto65" depart="586.77" departLane="best" departSpeed="max" from="-5247714#9" to="-159396212#2" type="moto_motorcycle"/>
    <trip id="moto66" depart="595.79" departLane="best" from="5248103#7" to="5248804#2" type="moto_motorcycle"/>
    <trip id="moto67" depart="604.82" departLane="best" departSpeed="max" from="-161730983#9" to="159396197#1" type="moto_motorcycle"/>
    <trip id="moto68" depart="613.85" departLane="best" from="-161730983#2" to="5247010#1" type="moto_motorcycle"/>
    <trip id="moto69" depart="622.87" departLane="best" from="5246897#3" to="-5243462#2" type="moto_motorcycle"/>
    <trip id="moto70" depart="631.90" departLane="best" from="-5248890#2" to="171479232#4" type="moto_motorcycle"/>
    <trip id="moto71" depart="640.93" departLane="best" from="-5247219#0" to="5248103#8" type="moto_motorcycle"/>
    <trip id="moto72" depart="649.96" departLane="best" from="-5248603#3" to="-5246845#7" type="moto_motorcycle"/>
    <trip id="moto73" depart="658.98" departLane="best" from="159396197#6" to="5246845#5" type="moto_motorcycle"/>
    <trip id="moto74" depart="668.01" departLane="best" departSpeed="max" from="-5246282#5" to="-5248103#0" type="moto_motorcycle"/>
    <trip id="moto75" depart="677.04" departLane="best" from="56323061#1" to="5243462#5" type="moto_motorcycle"/>
    <trip id="moto76" depart="686.06" departLane="best" from="-5248804#1" to="159396219#0" type="moto_motorcycle"/>
    <trip id="moto77" depart="695.09" departLane="best" from="-48232853#1" to="-5246897#3" type="moto_motorcycle"/>
    <trip id="moto78" depart="704.12" departLane="best" from="-5248097#6" to="424417969#4" type="moto_motorcycle"/>
    <trip id="moto79" depart="713.15" departLane="best" from="-5246845#5" to="-5246897#1" type="moto_motorcycle"/>
    <trip id="moto80" depart="722.17" departLane="best" from="-161730983#3" to="49682101#7" type="moto_motorcycle"/>
    <trip id="moto81" depart="731.20" departLane="best" from="-5246845#5" to="5248465#2" type="moto_motorcycle"/>
    <trip id="moto82" depart="740.23" departLane="best" from="5248103#1" to="-161730983#3" type="moto_motorcycle"/>
    <trip id="moto83" depart="749.25" departLane="best" from="-5246845#9" to="5245321#1" type="moto_motorcycle"/>
    <trip id="moto84" depart="758.28" departLane="best" from="-5246845#13" to="-5243462#4" type="moto_motorcycle"/>
    <trip id="moto85" depart="767.31" departLane="best" from="5248603#6" to="238902094#6" type="moto_motorcycle"/>
    <trip id="moto86" depart="776.34" departLane="best" from="-5248890#1" to="5247219#9" type="moto_motorcycle"/>
    <trip id="moto87" depart="785.36" departLane="best" from="5247714#3" to="-5246845#10" type="moto_motorcycle"/>
    <trip id="moto88" depart="794.39" departLane="best" from="-171479232#7" to="-5248890#0" type="moto_motorcycle"/>
    <trip id="moto89" depart="803.42" departLane="best" from="-5248603#3" to="141913259#0" type="moto_motorcycle"/>
    <trip id="moto90" depart="812.45" departLane="best" from="5246845#1" to="5245321#3" type="moto_motorcycle"/>
    <trip id="moto91" depart="821.47" departLane="best" from="5248890#3" to="-171479232#7" type="moto_motorcycle"/>
    <trip id="moto92" depart="830.50" departLane="best" from="-5248600#1" to="-5248257#0" type="moto_motorcycle"/>
    <trip id="moto93" depart="839.53" departLane="best" from="5248103#10" to="-5247219#4" type="moto_motorcycle"/>
    <trip id="moto94" depart="848.55" departLane="best" from="-5246282#1" to="-56323061#1" type="moto_motorcycle"/>
    <trip id="moto95" depart="857.58" departLane="best" from="-5248603#2" to="-5247714#8" type="moto_motorcycle"/>
    <trip id="moto96" depart="866.61" departLane="best" from="-5246897#4" to="5248603#1" type="moto_motorcycle"/>
    <trip id="moto97" depart="875.64" departLane="best" from="-5248804#3" to="5248103#3" type="moto_motorcycle"/>
    <trip id="moto98" depart="884.66" departLane="best" from="159396212#0" to="-159396209" type="moto_motorcycle"/>
    <trip id="moto99" depart="893.69" departLane="best" from="56323061#3" to="5248097#3" type="moto_motorcycle"/>
    <trip id="moto100" depart="902.72" departLane="best" from="5248873#3" to="5248603#2" type="moto_motorcycle"/>
    <trip id="moto101" depart="911.74" departLane="best" from="5248097#7" to="-5246282#0" type="moto_motorcycle"/>
    <trip id="moto102" depart="920.77" departLane="best" from="-56323061#1" to="-5246845#8" type="moto_motorcycle"/>
    <trip id="moto103" depart="929.80" departLane="best" from="-5248600#0" to="-159396212#2" type="moto_motorcycle"/>
    <trip id="moto104" depart="938.83" departLane="best" from="-5248257#4" to="5248890#4" type="moto_motorcycle"/>
    <trip id="moto105" depart="947.85" departLane="best" from="-5247219#0" to="5247219#9" type="moto_motorcycle"/>
    <trip id="moto106" depart="956.88" departLane="best" from="-5248873#0" to="-5248873#3" type="moto_motorcycle"/>
    <trip id="moto107" depart="965.91" departLane="best" from="5248804#5" to="56323061#3" type="moto_motorcycle"/>
    <trip id="moto108" depart="974.93" departLane="best" from="159396212#2" to="5246845#14" type="moto_motorcycle"/>
    <trip id="moto109" depart="983.96" departLane="best" from="-5243462#8" to="-5248097#4" type="moto_motorcycle"/>
    <trip id="moto110" depart="992.99" departLane="best" from="5248873#3" to="315934747" type="moto_motorcycle"/>
    <trip id="moto111" depart="1002.02" departLane="best" from="159396197#7" to="5246897#3" type="moto_motorcycle"/>
    <trip id="moto112" depart="1011.04" departLane="best" from="123435765#2" to="5248103#1" type="moto_motorcycle"/>
    <trip id="moto113" depart="1020.07" departLane="best" departSpeed="max" from="-5243462#9" to="5248873#0" type="moto_motorcycle"/>
    <trip id="moto114" depart="1029.10" departLane="best" from="171479232#7" to="5245321#4" type="moto_motorcycle"/>
    <trip id="moto115" depart="1038.12" departLane="best" from="-5246845#8" to="-48232853#4" type="moto_motorcycle"/>
    <trip id="moto116" depart="1047.15" departLane="best" from="5248257#3" to="-5247219#2" type="moto_motorcycle"/>
    <trip id="moto117" depart="1056.18" departLane="best" from="171479232#7" to="49682101#10" type="moto_motorcycle"/>
    <trip id="moto118" depart="1065.21" departLane="best" from="-5248603#1" to="424417969#2" type="moto_motorcycle"/>
    <trip id="moto119" depart="1074.23" departLane="best" from="141913259#5" to="5248603#6" type="moto_motorcycle"/>
    <trip id="moto120" depart="1083.26" departLane="best" from="-5246603#1" to="5246845#13" type="moto_motorcycle"/>
    <trip id="moto121" depart="1092.29" departLane="best" from="-5246845#9" to="-5248605#1" type="moto_motorcycle"/>
    <trip id="moto122" depart="1101.31" departLane="best" from="5243462#3" to="-5248097#5" type="moto_motorcycle"/>
    <trip id="moto123" depart="1110.34" departLane="best" from="-5247826#2" to="5246897#5" type="moto_motorcycle"/>
    <trip id="moto124" depart="1119.37" departLane="best" from="-161730983#4" to="123435765#2" type="moto_motorcycle"/>
    <trip id="moto125" depart="1128.40" departLane="best" from="56323061#3" to="56323061#4" type="moto_motorcycle"/>
    <trip id="moto126" depart="1137.42" departLane="best" from="-161730983#4" to="-5246845#7" type="moto_motorcycle"/>
    <trip id="moto127" depart="1146.45" departLane="best" from="-5247219#0" to="5248603#5" type="moto_motorcycle"/>
    <trip id="moto128" depart="1155.48" departLane="best" from="5248103#8" to="5248257#2" type="moto_motorcycle"/>
    <trip id="moto129" depart="1164.50" departLane="best" from="-5248257#0" to="-5245321#4" type="moto_motorcycle"/>
    <trip id="moto130" depart="1173.53" departLane="best" from="5248097#0" to="5246603#1" type="moto_motorcycle"/>
    <trip id="moto131" depart="1182.56" departLane="best" from="238902094#5" to="5248890#5" type="moto_motorcycle"/>
    <trip id="moto132" depart="1191.59" departLane="best" from="49682101#5" to="-123435765#2" type="moto_motorcycle"/>
    <trip id="moto133" depart="1200.61" departLane="best" from="5247714#7" to="-5248097#5" type="moto_motorcycle"/>
    <trip id="moto134" depart="1209.64" departLane="best" from="49682101#9" to="5248605#2" type="moto_motorcycle"/>
    <trip id="moto135" depart="1218.67" departLane="best" departSpeed="max" from="-48232853#6" to="-48232853#2" type="moto_motorcycle"/>
    <trip id="moto136" depart="1227.69" departLane="best" from="-424417969#0" to="171479232#6" type="moto_motorcycle"/>
    <trip id="moto137" depart="1236.72" departLane="best" from="-5247219#4" to="48232853#5" type="moto_motorcycle"/>
    <trip id="moto138" depart="1245.75" departLane="best" from="48232853#2" to="-5247714#2" type="moto_motorcycle"/>
    <trip id="moto139" depart="1254.78" departLane="best" from="-56323061#3" to="5248465#2" type="moto_motorcycle"/>
    <trip id="moto140" depart="1263.80" departLane="best" from="5248097#5" to="-171479232#3" type="moto_motorcycle"/>
    <trip id="moto141" depart="1272.83" departLane="best" from="-5248603#3" to="-5247714#7" type="moto_motorcycle"/>
    <trip id="moto142" depart="1281.86" departLane="best" from="-123435765#2" to="5247219#2" type="moto_motorcycle"/>
    <trip id="moto143" depart="1290.88" departLane="best" from="48232853#3" to="-5247714#1" type="moto_motorcycle"/>
    <trip id="moto144" depart="1299.91" departLane="best" from="5246845#2" to="171479232#6" type="moto_motorcycle"/>
    <trip id="moto145" depart="1308.94" departLane="best" from="-5248603#5" to="-123435765#3" type="moto_motorcycle"/>
    <trip id="moto146" depart="1317.97" departLane="best" from="-161730983#5" to="5248257#3" type="moto_motorcycle"/>
    <trip id="moto147" depart="1326.99" departLane="best" from="5248465#1" to="171479232#1" type="moto_motorcycle"/>
    <trip id="moto148" depart="1336.02" departLane="best" from="5248097#0" to="424417969#2" type="moto_motorcycle"/>
    <trip id="moto149" depart="1345.05" departLane="best" from="-5243462#5" to="-5243462#1" type="moto_motorcycle"/>
    <trip id="moto150" depart="1354.08" departLane="best" departSpeed="max" from="-5247714#9" to="5248465#1" type="moto_motorcycle"/>
    <trip id="moto151" depart="1363.10" departLane="best" from="5247219#7" to="5248103#3" type="moto_motorcycle"/>
    <trip id="moto152" depart="1372.13" departLane="best" from="5248257#7" to="-5246845#6" type="moto_motorcycle"/>
    <trip id="moto153" depart="1381.16" departLane="best" from="-5246897#4" to="-424417969#0" type="moto_motorcycle"/>
    <trip id="moto154" depart="1390.18" departLane="best" from="5247010#1" to="5248257#4" type="moto_motorcycle"/>
    <trip id="moto155" depart="1399.21" departLane="best" from="-5248600#2" to="49682101#2" type="moto_motorcycle"/>
    <trip id="moto156" depart="1408.24" departLane="best" from="-5243462#8" to="5248603#4" type="moto_motorcycle"/>
    <trip id="moto157" depart="1417.27" departLane="best" from="5248103#11" to="5248873#6" type="moto_motorcycle"/>
    <trip id="moto158" depart="1426.29" departLane="best" from="5247714#4" to="5248257#3" type="moto_motorcycle"/>
    <trip id="moto159" depart="1435.32" departLane="best" from="-141913259#6" to="5246845#8" type="moto_motorcycle"/>
    <trip id="moto160" depart="1444.35" departLane="best" from="-5248097#4" to="5248603#4" type="moto_motorcycle"/>
    <trip id="moto161" depart="1453.37" departLane="best" from="5247714#1" to="5248103#5" type="moto_motorcycle"/>
    <trip id="moto162" depart="1462.40" departLane="best" from="5247714#4" to="-5247714#3" type="moto_motorcycle"/>
    <trip id="moto163" depart="1471.43" departLane="best" from="5247219#2" to="-424417969#4" type="moto_motorcycle"/>
    <trip id="moto164" depart="1480.46" departLane="best" from="5248103#4" to="5248103#2" type="moto_motorcycle"/>
    <trip id="moto165" depart="1489.48" departLane="best" from="-5246845#2" to="5247826#2" type="moto_motorcycle"/>
    <trip id="moto166" depart="1498.51" departLane="best" from="-5248873#2" to="-5248097#7" type="moto_motorcycle"/>
    <trip id="moto167" depart="1507.54" departLane="best" from="5247219#6" to="-5246897#4" type="moto_motorcycle"/>
    <trip id="moto168" depart="1516.56" departLane="best" from="-141913259#5" to="-5246845#11" type="moto_motorcycle"/>
    <trip id="moto169" depart="1525.59" departLane="best" departSpeed="max" from="-5248097#11" to="5248103#5" type="moto_motorcycle"/>
    <trip id="moto170" depart="1534.62" departLane="best" from="5248873#2" to="-5247826#0" type="moto_motorcycle"/>
    <trip id="moto171" depart="1543.65" departLane="best" from="48232853#5" to="-5248605#2" type="moto_motorcycle"/>
    <trip id="moto172" depart="1552.67" departLane="best" from="5248890#2" to="161730983#6" type="moto_motorcycle"/>
    <trip id="moto173" depart="1561.70" departLane="best" from="5248873#0" to="-5247714#2" type="moto_motorcycle"/>
    <trip id="moto174" depart="1570.73" departLane="best" from="-424417969#2" to="-5248890#1" type="moto_motorcycle"/>
    <trip id="moto175" depart="1579.75" departLane="best" from="5246845#1" to="-5248103#0" type="moto_motorcycle"/>
    <trip id="moto176" depart="1588.78" departLane="best" from="238902094#2" to="159396212#2" type="moto_motorcycle"/>
    <trip id="moto177" depart="1597.81" departLane="best" from="-5248257#7" to="315934747" type="moto_motorcycle"/>
    <trip id="moto178" depart="1606.84" departLane="best" from="-5246897#6" to="5246845#10" type="moto_motorcycle"/>
    <trip id="moto179" depart="1615.86" departLane="best" from="-123435765#1" to="5248603#2" type="moto_motorcycle"/>
    <trip id="moto180" depart="1624.89" departLane="best" from="159396197#5" to="5246845#15" type="moto_motorcycle"/>
    <trip id="moto181" depart="1633.92" departLane="best" from="5246845#2" to="5245321#2" type="moto_motorcycle"/>
    <trip id="moto182" depart="1642.94" departLane="best" from="-5248103#7" to="-161730983#2" type="moto_motorcycle"/>
    <trip id="moto183" depart="1651.97" departLane="best" from="5243462#0" to="-5248103#6" type="moto_motorcycle"/>
    <trip id="moto184" depart="1661.00" departLane="best" from="-5247826#1" to="5248097#8" type="moto_motorcycle"/>
    <trip id="moto185" depart="1670.03" departLane="best" departSpeed="max" from="-5247714#9" to="-5248804#3" type="moto_motorcycle"/>
    <trip id="moto186" depart="1679.05" departLane="best" from="-5248600#1" to="-5248097#3" type="moto_motorcycle"/>
    <trip id="moto187" depart="1688.08" departLane="best" from="-48232853#3" to="-5248873#2" type="moto_motorcycle"/>
    <trip id="moto188" depart="1697.11" departLane="best" departSpeed="max" from="5248605#0" to="5245321#5" type="moto_motorcycle"/>
    <trip id="moto189" depart="1706.13" departLane="best" from="5248465#0" to="49682101#10" type="moto_motorcycle"/>
    <trip id="moto190" depart="1715.16" departLane="best" from="-5247714#6" to="171479232#3" type="moto_motorcycle"/>
    <trip id="moto191" depart="1724.19" departLane="best" from="-123435765#1" to="-5247826#4" type="moto_motorcycle"/>
    <trip id="moto192" depart="1733.22" departLane="best" from="-5248603#6" to="315934747" type="moto_motorcycle"/>
    <trip id="moto193" depart="1742.24" departLane="best" from="49682101#5" to="123435765#5" type="moto_motorcycle"/>
    <trip id="moto194" depart="1751.27" departLane="best" from="-5248804#3" to="-5246845#8" type="moto_motorcycle"/>
    <trip id="moto195" depart="1760.30" departLane="best" from="-5248890#1" to="5248465#2" type="moto_motorcycle"/>
    <trip id="moto196" depart="1769.32" departLane="best" from="5247219#7" to="-5246282#2" type="moto_motorcycle"/>
    <trip id="moto197" depart="1778.35" departLane="best" from="48232853#1" to="-5248103#8" type="moto_motorcycle"/>
    <trip id="moto198" depart="1787.38" departLane="best" from="5247714#8" to="5246897#4" type="moto_motorcycle"/>
    <trip id="moto199" depart="1796.41" departLane="best" from="5243462#4" to="-5246897#3" type="moto_motorcycle"/>
    <trip id="moto200" depart="1805.43" departLane="best" departSpeed="max" from="-5246282#5" to="-141913259#4" type="moto_motorcycle"/>
    <trip id="moto201" depart="1814.46" departLane="best" from="-5246897#2" to="141913259#4" type="moto_motorcycle"/>
    <trip id="moto202" depart="1823.49" departLane="best" from="5248097#7" to="-161730983#4" type="moto_motorcycle"/>
    <trip id="moto203" depart="1832.51" departLane="best" from="-5248600#6" to="49682101#6" type="moto_motorcycle"/>
    <trip id="moto204" depart="1841.54" departLane="best" from="-5246282#3" to="5246282#3" type="moto_motorcycle"/>
    <trip id="moto205" depart="1850.57" departLane="best" departSpeed="max" from="-56323061#4" to="-5247219#1" type="moto_motorcycle"/>
    <trip id="moto206" depart="1859.60" departLane="best" from="49682101#6" to="-123435765#1" type="moto_motorcycle"/>
    <trip id="moto207" depart="1868.62" departLane="best" from="5246845#6" to="5247219#2" type="moto_motorcycle"/>
    <trip id="moto208" depart="1877.65" departLane="best" from="-424417969#0" to="-5248873#4" type="moto_motorcycle"/>
    <trip id="moto209" depart="1886.68" departLane="best" from="-5245321#5" to="5248804#7" type="moto_motorcycle"/>
    <trip id="moto210" depart="1895.71" departLane="best" from="141913259#3" to="-159396202" type="moto_motorcycle"/>
    <trip id="moto211" depart="1904.73" departLane="best" from="-5246897#4" to="5248097#8" type="moto_motorcycle"/>
    <trip id="moto212" depart="1913.76" departLane="best" from="-5248873#0" to="5247714#6" type="moto_motorcycle"/>
    <trip id="moto213" depart="1922.79" departLane="best" from="5243462#1" to="5248890#5" type="moto_motorcycle"/>
    <trip id="moto214" depart="1931.81" departLane="best" from="171479232#7" to="5248804#4" type="moto_motorcycle"/>
    <trip id="moto215" depart="1940.84" departLane="best" from="5248257#3" to="49682101#0" type="moto_motorcycle"/>
    <trip id="moto216" depart="1949.87" departLane="best" from="5247961#0" to="171479232#3" type="moto_motorcycle"/>
    <trip id="moto217" depart="1958.90" departLane="best" from="5248257#6" to="5246897#1" type="moto_motorcycle"/>
    <trip id="moto218" depart="1967.92" departLane="best" from="-5248890#1" to="-5247219#8" type="moto_motorcycle"/>
    <trip id="moto219" depart="1976.95" departLane="best" from="-5246897#3" to="5243462#0" type="moto_motorcycle"/>
    <trip id="moto220" depart="1985.98" departLane="best" from="5246897#3" to="159396219#2" type="moto_motorcycle"/>
    <trip id="moto221" depart="1995.00" departLane="best" from="424417969#4" to="-5247714#6" type="moto_motorcycle"/>
    <trip id="moto222" depart="2004.03" departLane="best" from="-161730983#6" to="-5247826#4" type="moto_motorcycle"/>
    <trip id="moto223" depart="2013.06" departLane="best" from="-5247219#4" to="-5248103#11" type="moto_motorcycle"/>
    <trip id="moto224" depart="2022.09" departLane="best" from="159396197#6" to="-5243462#6" type="moto_motorcycle"/>
    <trip id="moto225" depart="2031.11" departLane="best" from="-5246845#6" to="5246282#2" type="moto_motorcycle"/>
    <trip id="moto226" depart="2040.14" departLane="best" from="5246282#0" to="-159396219#2" type="moto_motorcycle"/>
    <trip id="moto227" depart="2049.17" departLane="best" from="-5248600#3" to="161730983#9" type="moto_motorcycle"/>
    <trip id="moto228" depart="2058.19" departLane="best" from="-5248603#0" to="-5246845#5" type="moto_motorcycle"/>
    <trip id="moto229" depart="2067.22" departLane="best" from="-5248603#2" to="5248465#2" type="moto_motorcycle"/>
    <trip id="moto230" depart="2076.25" departLane="best" departSpeed="max" from="171479232#0" to="5246282#3" type="moto_motorcycle"/>
    <trip id="moto231" depart="2085.28" departLane="best" departSpeed="max" from="5248103#0" to="5247219#0" type="moto_motorcycle"/>
    <trip id="moto232" depart="2094.30" departLane="best" from="-5248257#5" to="-123435765#1" type="moto_motorcycle"/>
    <trip id="moto233" depart="2103.33" departLane="best" from="-5248103#2" to="5246897#5" type="moto_motorcycle"/>
    <trip id="moto234" depart="2112.36" departLane="best" from="5248097#9" to="5248804#5" type="moto_motorcycle"/>
    <trip id="moto235" depart="2121.38" departLane="best" from="-5248603#1" to="5246897#3" type="moto_motorcycle"/>
    <trip id="moto236" depart="2130.41" departLane="best" from="159396207" to="48232853#4" type="moto_motorcycle"/>
    <trip id="moto237" depart="2139.44" departLane="best" departSpeed="max" from="-5246845#15" to="-5246897#0" type="moto_motorcycle"/>
    <trip id="moto238" depart="2148.47" departLane="best" from="-5248804#0" to="-141913259#6" type="moto_motorcycle"/>
    <trip id="moto239" depart="2157.49" departLane="best" from="-5248097#5" to="5245321#6" type="moto_motorcycle"/>
    <trip id="moto240" depart="2166.52" departLane="best" from="-5248600#1" to="-5246282#0" type="moto_motorcycle"/>
    <trip id="moto241" depart="2175.55" departLane="best" from="-5248873#5" to="-5243462#2" type="moto_motorcycle"/>
    <trip id="moto242" depart="2184.57" departLane="best" from="424417969#2" to="-141913259#5" type="moto_motorcycle"/>
    <trip id="moto243" depart="2193.60" departLane="best" from="-5248465#1" to="238902094#3" type="moto_motorcycle"/>
    <trip id="moto244" depart="2202.63" departLane="best" from="-141913259#7" to="5243462#2" type="moto_motorcycle"/>
    <trip id="moto245" depart="2211.66" departLane="best" departSpeed="max" from="-48232853#6" to="123435765#4" type="moto_motorcycle"/>
    <trip id="moto246" depart="2220.68" departLane="best" from="-159396212#0" to="-5248603#1" type="moto_motorcycle"/>
    <trip id="moto247" depart="2229.71" departLane="best" from="-5246845#12" to="-5248103#4" type="moto_motorcycle"/>
    <trip id="moto248" depart="2238.74" departLane="best" from="5246897#1" to="-5248603#1" type="moto_motorcycle"/>
    <trip id="moto249" depart="2247.76" departLane="best" from="5246845#7" to="5248097#11" type="moto_motorcycle"/>
    <trip id="moto250" depart="2256.79" departLane="best" from="-5246897#5" to="-161731011" type="moto_motorcycle"/>
    <trip id="moto251" depart="2265.82" departLane="best" from="-141913259#3" to="161730983#9" type="moto_motorcycle"/>