<?xml version="1.0" encoding="UTF-8"?>

<!-- generated on 01/27/19 19:18:43 by Eclipse SUMO duarouter Version v1_1_0+0008-ffcb6ceee0
<configuration xmlns:xsi="http://www.w3.org/2001/XMLSchema-instance" xsi:noNamespaceSchemaLocation="http://sumo.dlr.de/xsd/duarouterConfiguration.xsd">

    <input>
        <net-file value="C:\Users\sunde\Documents\GitHub\AR-Sandbox-for-Construction-Planning\src\AR_Sumobox\Assets\Generated\Networks\new_network\osm.net.xml"/>
        <route-files value="C:\Users\sunde\Documents\GitHub\AR-Sandbox-for-Construction-Planning\src\AR_Sumobox\Assets\Generated\Networks\new_network\osm.bus.trips.xml"/>
    </input>

    <output>
        <output-file value="C:\Users\sunde\Documents\GitHub\AR-Sandbox-for-Construction-Planning\src\AR_Sumobox\Assets\Generated\Networks\new_network\osm.bus.rou.xml"/>
        <alternatives-output value="C:\Users\sunde\Documents\GitHub\AR-Sandbox-for-Construction-Planning\src\AR_Sumobox\Assets\Generated\Networks\new_network\osm.bus.rou.alt.xml"/>
    </output>

    <time>
        <begin value="0"/>
        <end value="3600.0"/>
    </time>

    <report>
        <no-warnings value="true"/>
        <ignore-errors value="true"/>
        <no-step-log value="true"/>
    </report>

</configuration>
-->

<routes xmlns:xsi="http://www.w3.org/2001/XMLSchema-instance" xsi:noNamespaceSchemaLocation="http://sumo.dlr.de/xsd/routes_file.xsd">
    <vType id="bus_bus" vClass="bus"/>
    <vehicle id="bus0" type="bus_bus" depart="0.00" departLane="best" departSpeed="max">
        <route edges="5246845#0 5246845#1 -5247219#6 -5247219#5 -5247219#4 5248603#0 5248603#1 5248603#2 5248603#3 5248603#4 5248603#5 5246282#0"/>
    </vehicle>
    <vehicle id="bus1" type="bus_bus" depart="9.03" departLane="best">
        <route edges="-5246845#1 5246845#1 -5247219#6 -5247219#5 -5247219#4 5248603#0 5248603#1 5248603#2 5248603#3 5248603#4 5248603#5 5248603#6 5248600#0 5248600#1 5248600#2 5248600#3 -5246897#0 161730983#5"/>
    </vehicle>
    <vehicle id="bus2" type="bus_bus" depart="18.05" departLane="best">
        <route edges="-5246845#10 5246845#10 5246845#11 5246845#12 5246845#13 5246845#14 -5248257#7 -5248257#6 48232853#5 48232853#6"/>
    </vehicle>
    <vehicle id="bus3" type="bus_bus" depart="27.08" departLane="best">
        <route edges="5247714#0 -5247714#0 -159396197#1 -159396197#0 -123435765#5 -123435765#4 -123435765#3 -123435765#2 -123435765#1 -123435765#0"/>
    </vehicle>
    <vehicle id="bus4" type="bus_bus" depart="36.11" departLane="best">
        <route edges="5247219#7 5248890#2 -5245321#6 5246845#3 5246845#4 5246845#5 5246845#6 5246845#7 5246845#8 5246845#9 5246845#10"/>
    </vehicle>
    <vehicle id="bus5" type="bus_bus" depart="45.14" departLane="best">
        <route edges="5248873#0 5248605#2 5248603#0 5248603#1 5248603#2 5248603#3 5248603#4 5248603#5 5248603#6 5247826#4 159396209 161731011 159396212#0 -5246845#9 5248465#0 5248465#1 -5248465#1"/>
    </vehicle>
    <vehicle id="bus6" type="bus_bus" depart="54.16" departLane="best" departSpeed="max">
        <route edges="5248103#0 5248103#1 5248103#2 5248103#3 5248103#4 5248103#5 -5248097#10 -5248097#9 5246845#6 5246845#7 -56323061#1 238902094#8 159396202 48232853#0 48232853#1 48232853#2"/>
    </vehicle>
    <vehicle id="bus7" type="bus_bus" depart="63.19" departLane="best" departSpeed="max">
        <route edges="-161730983#9 5248257#0 5248257#1 5248257#2 5248257#3 -5248600#6 -5248600#5 -5248600#4 -5248600#3 -5248600#2 -5248600#1 -5248600#0 -5248603#6 -5248603#5 -5248603#4 -5248603#3 -5248603#2 -5248603#1 -5248603#0 -5247219#2 -5247219#1 -5247219#0"/>
    </vehicle>
    <vehicle id="bus8" type="bus_bus" depart="72.22" departLane="best">
        <route edges="238902094#6 -5246282#1 49682101#1 49682101#2 49682101#3 49682101#4 -5243462#2 -5248603#1 -5248603#0 -5248605#2 -5248605#1 -5248605#0"/>
    </vehicle>
    <vehicle id="bus9" type="bus_bus" depart="81.24" departLane="best">
        <route edges="-5248103#2 5248103#2 5248103#3 5248103#4 5248103#5 -5248097#10 -5248097#9 5246845#6 5246845#7 -56323061#1 238902094#8 -161731011 159396207 -171479232#8 -171479232#7 -171479232#6 -171479232#4 -5246897#2 -5246897#1"/>
    </vehicle>
    <vehicle id="bus10" type="bus_bus" depart="90.27" departLane="best" departSpeed="max">
        <route edges="-5246897#7 -5246897#6 -5246897#5 -5246897#4 -5246897#3 -5246897#2 -5246897#1 -5248600#3 -5248600#2 -5248804#1 5248804#1"/>
    </vehicle>
    <vehicle id="bus11" type="bus_bus" depart="99.30" departLane="best">
        <route edges="-5244856#1 5248605#1 5248605#2 5248603#0 5245321#3 5245321#4 5245321#5 5246845#3 5246845#4 5246845#5 5246845#6 5246845#7 5246845#8"/>
    </vehicle>
    <vehicle id="bus12" type="bus_bus" depart="108.33" departLane="best" departSpeed="max">
        <route edges="-5243462#9 -5243462#8 5248890#4 -5247714#7 -5247714#6 -5247714#5 -5247714#4 -5247714#3 -5247714#2 5248603#4 5248603#5 5248603#6 5248600#0 5248600#1 -5248804#1"/>
    </vehicle>
    <vehicle id="bus13" type="bus_bus" depart="117.35" departLane="best">
        <route edges="159396197#4 -159396197#4 5248097#0 5248097#1 5248097#3 5248097#4 5248097#5 5248097#6 5248097#7 5248097#8 5246845#6 5246282#3 5246282#4 5246282#5"/>
    </vehicle>
    <vehicle id="bus14" type="bus_bus" depart="126.38" departLane="best">
        <route edges="5248097#3 5248097#4 5248097#5 5248097#6 5248097#7 5248097#8 -5246845#5 -5246845#4 -5246845#3 -5246845#2 5247219#7 5247219#8 5247219#9"/>
    </vehicle>
    <vehicle id="bus15" type="bus_bus" depart="135.41" departLane="best" departSpeed="max">
        <route edges="-5246845#15 -5246845#14 5246897#5 -141913259#7"/>
    </vehicle>
    <vehicle id="bus16" type="bus_bus" depart="144.43" departLane="best">
        <route edges="48232853#4 5248257#6 5248257#7 -5246845#14 -5246845#13 -5246845#12 -5246845#11 -5246845#10 -5246845#9 -5246845#8 -5246845#7 -5246845#6 -5246845#5 -5246845#4 -5246845#3 -5246845#2 -5246845#1 -5248873#3"/>
    </vehicle>
    <vehicle id="bus17" type="bus_bus" depart="153.46" departLane="best">
        <route edges="-5246897#6 -141913259#7 -141913259#6 -141913259#5 -141913259#4 -141913259#3 5248465#1 -5248103#8 -5248103#7 -5248103#6 -5248103#5 -5248103#4 -5248103#3 -5248103#2 -5247219#8"/>
    </vehicle>
    <vehicle id="bus18" type="bus_bus" depart="162.49" departLane="best">
        <route edges="161730983#3 -161730983#3 5248804#0 5248804#1 -5248600#1 -5248600#0 5247826#4 159396209 161731011 159396212#0 -5246845#9 5248465#0 5248465#1 5248465#2"/>
    </vehicle>
    <vehicle id="bus19" type="bus_bus" depart="171.52" departLane="best" departSpeed="max">
        <route edges="-5248257#8 -5246845#14 -5246845#13 -5246845#12 -5246845#11 -5246845#10 -159396212#0 -161731011 159396207 -5247826#4 -5248603#6 -5248603#5 -5248603#4 -5248603#3 -5248603#2 -5243462#1 -5243462#0 -5247010#2 -5247010#1 -5247010#0"/>
    </vehicle>
    <vehicle id="bus20" type="bus_bus" depart="180.54" departLane="best">
        <route edges="-424417969#3 -424417969#2 -424417969#0 5248257#0 5248257#1 5248257#2 5248257#3 -5248600#6 -5248600#5 -5248600#4 -5248600#3 -5248600#2 -5248600#1 -5248600#0 -5248603#6 -5248603#5 -5248603#4 5247714#2 49682101#3 49682101#4 5243462#3"/>
    </vehicle>
    <vehicle id="bus21" type="bus_bus" depart="189.57" departLane="best" departSpeed="max">
        <route edges="5248890#0 5248873#5 5248103#1 5248103#2 5248103#3 5248103#4 5248103#5 5248103#6"/>
    </vehicle>
    <vehicle id="bus22" type="bus_bus" depart="198.60" departLane="best" departSpeed="max">
        <route edges="-5246897#7 -5248103#11 -5248103#10 -5248103#9 -5248103#8 -5248103#7 -5248103#6 -5248103#5 -5248103#4 5243462#9"/>
    </vehicle>
    <vehicle id="bus23" type="bus_bus" depart="207.62" departLane="best">
        <route edges="-424417969#4 -424417969#3 -424417969#2 -424417969#0 5248257#0 5248257#1 5248257#2 5248257#3 -5248600#6 -5248600#5 -5248600#4 -5248600#3 -5248600#2 -5248600#1 -5248600#0 -5248603#6 -5248603#5 -5248603#4 -5248603#3 -5248603#2 -5248603#1 -5248603#0 -5248605#2 -5248605#1 -5244856#0 123435765#1"/>
    </vehicle>
    <vehicle id="bus24" type="bus_bus" depart="216.65" departLane="best">
        <route edges="-5248804#1 5248804#1 5248804#2 5248804#3 5248804#4 5248804#5 5248804#6 5248804#7"/>
    </vehicle>
    <vehicle id="bus25" type="bus_bus" depart="225.68" departLane="best">
        <route edges="-5248890#4 -5248890#3 -5245321#6 -5246845#2 -5246845#1 -5246845#0"/>
    </vehicle>
    <vehicle id="bus26" type="bus_bus" depart="234.71" departLane="best">
        <route edges="-123435765#1 5244856#0 5248605#1 5248605#2 5248603#0 5248603#1 5248603#2 5248603#3 5248603#4 5248603#5 5248603#6 5248600#0 5248600#1 5248600#2 5248600#3 5248600#4 5248600#5 5248600#6 -5248257#3 -5248257#2"/>
    </vehicle>
    <vehicle id="bus27" type="bus_bus" depart="243.73" departLane="best">
        <route edges="-171479232#1 171479232#1 171479232#3 171479232#4 171479232#6 171479232#7 171479232#8 159396209 161731011 159396212#0 159396212#1 159396212#2 159396212#3"/>
    </vehicle>
    <vehicle id="bus28" type="bus_bus" depart="252.76" departLane="best">
        <route edges="-161730983#5 5246897#0 -5248600#3 -5248600#2 -5248600#1 -5248600#0 -5248603#6 -5248603#5 -5248603#4 -5248603#3 -5248603#2 -5248603#1 -5248603#0 -5247219#2 -5247219#1 5247219#1"/>
    </vehicle>
    <vehicle id="bus29" type="bus_bus" depart="261.79" departLane="best">
        <route edges="-5248873#1 5248605#2 5248603#0 5248603#1 5248603#2 5248603#3 5248603#4 5248603#5 5248603#6 5247826#4 -171479232#8 -171479232#7 -171479232#6 -171479232#4 -171479232#3 315934747"/>
    </vehicle>
    <vehicle id="bus30" type="bus_bus" depart="270.82" departLane="best">
        <route edges="56323061#1 -5246845#7 -5246845#6 -5246845#5 -5246845#4 -5246845#3 -5246845#2 -5247219#6 -5247219#5 49682101#8 49682101#9 -5244856#1 5244856#1"/>
    </vehicle>
    <vehicle id="bus31" type="bus_bus" depart="279.84" departLane="best">
        <route edges="-5248603#2 5248603#2 5248603#3 5248603#4 5248603#5 5248603#6 5248600#0 5248600#1 5248600#2 5248600#3 5248600#4 5248600#5 5248600#6 -5248257#3 -5248257#2 -5248257#1 -5248257#0 161730983#9"/>
    </vehicle>
    <vehicle id="bus32" type="bus_bus" depart="288.87" departLane="best">
        <route edges="-5248097#1 5248097#1 5248097#3 5248097#4 5248097#5 5248603#5 5248603#6 5247826#4 159396209 161731011 159396202 48232853#0 48232853#1 48232853#2 48232853#3 48232853#4 48232853#5 48232853#6"/>
    </vehicle>
    <vehicle id="bus33" type="bus_bus" depart="297.90" departLane="best" departSpeed="max">
        <route edges="-5246845#15 -5246845#14 -5246845#13 -5246845#12 -5246845#11 -5246845#10 -159396212#0 -161731011 159396207 -5247826#4 -5248603#6 -5248603#5 -5248603#4 -5248603#3 -5248603#2 -5243462#1 -5243462#0 -5247010#2 -5247010#1 -5247010#0"/>
    </vehicle>
    <vehicle id="bus34" type="bus_bus" depart="306.92" departLane="best">
        <route edges="-161730983#6 -161730983#5 5246897#0 -5248600#3 -5248600#2 -5248600#1 -5248600#0 -5248603#6 -5248603#5 -5248603#4 5247714#2 49682101#3 49682101#4 5243462#3 5243462#4 5243462#5"/>
    </vehicle>
    <vehicle id="bus35" type="bus_bus" depart="315.95" departLane="best" departSpeed="max">
        <route edges="-5246845#15 -5248257#7 -5248257#6 -5248257#5 -5248257#4 -5248600#6 -5248600#5 -5248600#4 -5248600#3 -5248600#2 -5248600#1 5248600#1"/>
    </vehicle>
    <vehicle id="bus36" type="bus_bus" depart="324.98" departLane="best" departSpeed="max">
        <route edges="5248103#0 5248103#1 5248103#2 5248103#3 5248103#4 5248103#5 -5248097#10 -5248097#9 -5248097#8 -5248097#7 -5248097#6 5248603#5 5248603#6 5248600#0 5248600#1 5248600#2 5248600#3 -5246897#0 161730983#5 161730983#6 -161730983#6"/>
    </vehicle>
    <vehicle id="bus37" type="bus_bus" depart="334.01" departLane="best" departSpeed="max">
        <route edges="-5246282#5 -5246282#4 -5246282#3 -5246845#6 -5246845#5 -5246845#4 -5246845#3 -5246845#2 -5247219#6 -5247219#5 49682101#8 49682101#9 -5244856#1 -5244856#0"/>
    </vehicle>
    <vehicle id="bus38" type="bus_bus" depart="343.03" departLane="best" departSpeed="max">
        <route edges="5248605#0 5248605#1 5248605#2 5248603#0 5248603#1 5248603#2 5248603#3 5248603#4 5248603#5 5248603#6 5248600#0 5248600#1 5248600#2 5248600#3 5248600#4 5248600#5 5248600#6 -5248257#3 -5248257#2 -5248257#1 -5248257#0 424417969#0 424417969#2 424417969#3 424417969#4 424417969#5"/>
    </vehicle>
    <vehicle id="bus39" type="bus_bus" depart="352.06" departLane="best" departSpeed="max">
        <route edges="-5248804#7 -5248103#10 -159396212#2 -159396212#1 -159396212#0 -161731011 159396207 -5247826#4 -5248603#6 -5248603#5 -5248603#4 -5247714#1 5247714#1"/>
    </vehicle>
    <vehicle id="bus40" type="bus_bus" depart="361.09" departLane="best">
        <route edges="5247219#8 5248103#2 5248103#3 5248103#4 5248103#5 -5248097#10 -5248097#9 5246845#6 5246845#7 5246845#8 5246845#9 5246845#10 5246845#11 5246845#12 5246845#13 5246845#14 -5246845#14"/>
    </vehicle>
    <vehicle id="bus41" type="bus_bus" depart="370.11" departLane="best" departSpeed="max">
        <route edges="5246603#0 5246603#1 5248873#0 5248873#1 5248873#2 5248873#3 5246845#1 5247219#7 5247219#8 5248103#2 5245321#8"/>
    </vehicle>
    <vehicle id="bus42" type="bus_bus" depart="379.14" departLane="best">
        <route edges="5248890#5 -5248097#9 -5248097#8 -5248097#7 -5248097#6 5248603#5 5248603#6 5248600#0 5248600#1 5248600#2 5248600#3 5248600#4 5248600#5 5248600#6 -5248257#3 -5248257#2 -5248257#1 -5248257#0 424417969#0 424417969#2 -424417969#2"/>
    </vehicle>
    <vehicle id="bus43" type="bus_bus" depart="388.17" departLane="best" departSpeed="max">
        <route edges="-5248257#8 -5248257#7 -5248257#6 -5248257#5 -5248257#4 -5248600#6 -5248600#5 -5248600#4 -5248600#3 -5248600#2 -5248600#1 -5248600#0"/>
    </vehicle>
    <vehicle id="bus44" type="bus_bus" depart="397.20" departLane="best" departSpeed="max">
        <route edges="5248103#0 5248103#1 5248103#2 5248103#3 -5243462#8 5248890#4 -5247714#7 -5247714#6 -5247714#5 -5247714#4 -5247714#3 -5247714#2 -5247714#1"/>
    </vehicle>
    <vehicle id="bus45" type="bus_bus" depart="406.22" departLane="best" departSpeed="max">
        <route edges="5248890#0 -5248873#4 5246845#1 -5247219#6 -5247219#5 -5247219#4 5248603#0 5248603#1 5248603#2 5248603#3 5248603#4 5248603#5"/>
    </vehicle>
    <vehicle id="bus46" type="bus_bus" depart="415.25" departLane="best">
        <route edges="5248097#6 49682101#2 49682101#3 49682101#4 -5243462#2 -5243462#1 -5243462#0 -5247010#2 5247961#0 5247961#1 -5246603#0"/>
    </vehicle>
    <vehicle id="bus47" type="bus_bus" depart="424.28" departLane="best" departSpeed="max">
        <route edges="-5248873#6 5248103#1 5248103#2 5248103#3 5248103#4 5248103#5 -5248097#10 -5248097#9 5246845#6 5246845#7 5246845#8 5246845#9 5246845#10 5246845#11 5246845#12 5246845#13 -5246897#4"/>
    </vehicle>
    <vehicle id="bus48" type="bus_bus" depart="433.30" departLane="best" departSpeed="max">
        <route edges="-5248257#8 -5246845#14 -5246845#13 -5246845#12 -5246845#11 -5246845#10 -159396212#0 -161731011 159396207 -5247826#4 -5248603#6 -5248603#5 -5248603#4 -5248603#3 -5248603#2 -5243462#1 -5243462#0 -5247010#2 159396219#0 159396219#1 -159396219#1"/>
    </vehicle>
    <vehicle id="bus49" type="bus_bus" depart="442.33" departLane="best">
        <route edges="-5246897#6 -5246897#5 -5246845#13 -5246845#12 -5246845#11 -5246845#10 -159396212#0 -161731011 159396207 -5247826#4 -5248603#6 -5248603#5 -5248603#4 -5247714#1 5247714#1"/>
    </vehicle>
    <vehicle id="bus50" type="bus_bus" depart="451.36" departLane="best">
        <route edges="5248873#0 5248873#1 5248873#2 5248873#3 5246845#1 5247219#7 5247219#8 5248103#2 5248103#3 5248103#4 5248103#5 5248103#6 5248103#7 56323061#4"/>
    </vehicle>
    <vehicle id="bus51" type="bus_bus" depart="460.39" departLane="best" departSpeed="max">
        <route edges="5248890#0 -5248873#4 5246845#1 5246845#2 5246845#3 5246845#4 5246845#5 5246845#6 5246845#7 -56323061#1 238902094#8 159396202 48232853#0 48232853#1 48232853#2 48232853#3"/>
    </vehicle>
    <vehicle id="bus52" type="bus_bus" depart="469.41" departLane="best">
        <route edges="141913259#3 159396212#2 5248103#10 5248103#11 5246897#7"/>
    </vehicle>
    <vehicle id="bus53" type="bus_bus" depart="478.44" departLane="best">
        <route edges="-159396219#0 5247010#2 159396197#0 159396197#1 5247714#0 5247714#1 5248603#4 5248603#5 5248603#6 5247826#4 159396209 161731011 159396202 48232853#0 48232853#1 48232853#2 48232853#3 48232853#4 48232853#5"/>
    </vehicle>
    <vehicle id="bus54" type="bus_bus" depart="487.47" departLane="best">
        <route edges="161731011 159396212#0 -5246845#9 -5246845#8 56323061#2 -141913259#1 -141913259#0 -5248890#5 5247714#8 -5248103#4 -5248103#3 5245321#8"/>
    </vehicle>
    <vehicle id="bus55" type="bus_bus" depart="496.49" departLane="best" departSpeed="max">
        <route edges="-5246845#15 -5246845#14 -5246845#13 -5246845#12 -5246845#11 -5246845#10 -159396212#0 -161731011 159396207 49682101#0 49682101#1 49682101#2 49682101#3 49682101#4 -5243462#2"/>
    </vehicle>
    <vehicle id="bus56" type="bus_bus" depart="505.52" departLane="best">
        <route edges="5248257#2 5248257#3 -5248600#6 -5248600#5 -5248600#4 -5248600#3 -5248600#2 -5248600#1 -5248600#0 -5248603#6 5246282#0 5246282#1 5246282#2 -5246845#6 -5246845#5 -5246845#4 -5246845#3 -5246845#2 5247219#7 5247219#8 -5247219#8"/>
    </vehicle>
    <vehicle id="bus57" type="bus_bus" depart="514.55" departLane="best" departSpeed="max">
        <route edges="-5248465#2 -5248465#1 -5248465#0 5246845#9 5246845#10 5246845#11 5246845#12 5246845#13 5246845#14 -5248257#7 -5248257#6 48232853#5"/>
    </vehicle>
    <vehicle id="bus58" type="bus_bus" depart="523.58" departLane="best" departSpeed="max">
        <route edges="123435765#0 123435765#1 123435765#2 123435765#3 123435765#4 123435765#5 159396197#0 159396197#1 159396197#3 159396197#4 159396197#5 159396197#6 159396197#7 161730983#1 161730983#2 5248804#0"/>
    </vehicle>
    <vehicle id="bus59" type="bus_bus" depart="532.60" departLane="best">
        <route edges="-5247714#7 5246845#5 5246845#6 5246845#7 5246845#8 5246845#9 159396212#1 159396212#2 5248103#10 5248103#11 5246897#7"/>
    </vehicle>
    <vehicle id="bus60" type="bus_bus" depart="541.63" departLane="best">
        <route edges="-5246897#6 -5246897#5 -5246897#4 -5246897#3 -5246897#2 -5246897#1 -5248600#3 -5248600#2 -5248804#1 -5248804#0 5248804#0"/>
    </vehicle>
    <vehicle id="bus61" type="bus_bus" depart="550.66" departLane="best">
        <route edges="5247961#0 5247961#1 5246603#1 5248873#0 5248605#2 5248603#0 5248603#1 5248603#2 5248603#3 5248603#4 5248603#5 5248603#6 5247826#4 159396209 161731011 159396212#0 5246845#10 5246845#11 5246845#12 5246845#13"/>
    </vehicle>
    <vehicle id="bus62" type="bus_bus" depart="559.68" departLane="best">
        <route edges="48232853#3 -48232853#3 -48232853#2 -48232853#1 -48232853#0 -159396202 -161731011 159396207 -5247826#4 -5248603#6 -5248603#5 -5248603#4 -5248603#3 -5248603#2 -5248603#1 -5248603#0 -5248605#2 -5248605#1 -5244856#0 -123435765#0"/>
    </vehicle>
    <vehicle id="bus63" type="bus_bus" depart="568.71" departLane="best" departSpeed="max">
        <route edges="-48232853#6 -48232853#5 -48232853#4 -48232853#3 -48232853#2 -48232853#1 -48232853#0 -159396202 -161731011 159396207 -5247826#4 -5248603#6 -5248603#5 -5248603#4 -5248603#3 -5248603#2 -5243462#1 -5243462#0"/>
    </vehicle>
    <vehicle id="bus64" type="bus_bus" depart="577.74" departLane="best" departSpeed="max">
        <route edges="-5246897#7 -5246897#6 -5246897#5 -5246845#13 -5246845#12 -5246845#11 -5246845#10 -159396212#0 -161731011 159396207 49682101#0 49682101#1 49682101#2 49682101#3 49682101#4 49682101#5 49682101#6 49682101#7 49682101#8 49682101#9 49682101#10"/>
    </vehicle>
    <vehicle id="bus65" type="bus_bus" depart="586.77" departLane="best" departSpeed="max">
        <route edges="-5248873#6 5248103#1 5248103#2 5248103#3 5248103#4 5248103#5 -5248097#10 -5248097#9 -5248097#8 -5248097#7 -5248097#6 5248603#5 5248603#6 5248600#0"/>
    </vehicle>
    <vehicle id="bus66" type="bus_bus" depart="595.79" departLane="best">
        <route edges="-123435765#2 5248873#0 5248873#1 5248873#2 5248873#3 5246845#1 5247219#7 5247219#8"/>
    </vehicle>
    <vehicle id="bus67" type="bus_bus" depart="604.82" departLane="best" departSpeed="max">
        <route edges="5246845#0 5246845#1 5246845#2 5246845#3 5246845#4 5246845#5 5246845#6 5246845#7 -56323061#1 238902094#8 -161731011 159396207 -171479232#8 -171479232#7 -171479232#6 -171479232#4 -171479232#3 315934747"/>
    </vehicle>
    <vehicle id="bus68" type="bus_bus" depart="613.85" departLane="best">
        <route edges="-5248600#3 -5248600#2 -5248600#1 -5248600#0 -5248603#6 -5248603#5 -5248603#4 -5248603#3 -5248603#2 -5248603#1 -5248603#0 -5248605#2 -5248873#0 -123435765#1"/>
    </vehicle>
    <vehicle id="bus69" type="bus_bus" depart="622.87" departLane="best" departSpeed="max">
        <route edges="-161730983#9 5248257#0 5248257#1 5248257#2 5248257#3 5248257#4 5248257#5 5248257#6 5248257#7 5248257#8"/>
    </vehicle>
    <vehicle id="bus70" type="bus_bus" depart="631.90" departLane="best">
        <route edges="5247961#0 5247961#1 5246603#1 5248873#0 5248605#2 5248603#0 5248603#1 5248603#2 5248603#3 5248603#4 5248603#5 5248603#6 5247826#4 159396209 161731011 159396202 48232853#0 48232853#1 48232853#2 48232853#3 48232853#4"/>
    </vehicle>
    <vehicle id="bus71" type="bus_bus" depart="640.93" departLane="best">
        <route edges="-5247714#3 5247714#3 5247714#4 238902094#5 238902094#6 238902094#7 238902094#8 159396212#0 -5246845#9 5248465#0 5248465#1 5248465#2"/>
    </vehicle>
    <vehicle id="bus72" type="bus_bus" depart="649.96" departLane="best">
        <route edges="5247219#1 5247219#2 5247219#4 5247219#5 5247219#6 5247219#7 5247219#8 5248103#2 5248103#3 5248103#4 5248103#5 5248103#6"/>
    </vehicle>
    <vehicle id="bus73" type="bus_bus" depart="658.98" departLane="best" departSpeed="max">
        <route edges="-5248257#8 -5246845#14 -5246845#13 -5246845#12 -5246845#11 -5246845#10 -159396212#0 -161731011 159396207 49682101#0 49682101#1 49682101#2 49682101#3 49682101#4 49682101#5 49682101#6 49682101#7 49682101#8 49682101#9"/>
    </vehicle>
    <vehicle id="bus74" type="bus_bus" depart="668.01" departLane="best">
        <route edges="5247714#1 5248603#4 5248603#5 5248603#6 5247826#4 159396209 161731011 159396212#0 5246845#10 5246845#11 5246845#12 5246845#13 5246845#14 5248257#8"/>
    </vehicle>
    <vehicle id="bus75" type="bus_bus" depart="677.04" departLane="best">
        <route edges="-159396197#0 5243462#0 5243462#1 5248603#2 5248603#3 5248603#4 5248603#5 5248603#6 5247826#4 -171479232#8 -171479232#7 -171479232#6 -171479232#4 5246897#3"/>
    </vehicle>
    <vehicle id="bus76" type="bus_bus" depart="686.06" departLane="best">
        <route edges="5247219#5 238902094#2 5245321#5 5246845#3 5243462#7 5248890#4 5247714#8 5248103#5 5248103#6 5248103#7 5248103#8"/>
    </vehicle>
    <vehicle id="bus77" type="bus_bus" depart="695.09" departLane="best" departSpeed="max">
        <route edges="5247010#0 5247010#1 5247010#2 159396197#0 159396197#1 5247714#0 5247714#1 5248603#4 5248603#5 5248603#6 5247826#4 159396209 161731011 159396202 48232853#0 48232853#1 48232853#2 -48232853#2"/>
    </vehicle>
    <vehicle id="bus78" type="bus_bus" depart="704.12" departLane="best">
        <route edges="-5246845#11 -5246845#10 -159396212#0 -161731011 159396207 -5247826#4 -5248603#6 -5248603#5 -5248603#4 -5248603#3 -5248603#2 -5243462#1 -5243462#0 -5247010#2 5247961#0 5247961#1"/>
    </vehicle>
    <vehicle id="bus79" type="bus_bus" depart="713.15" departLane="best">
        <route edges="-5248804#5 -5246845#11 -5246845#10 -5246845#9 -5246845#8 56323061#2 -141913259#1 -141913259#0 -5248890#5 5247714#8 -5248103#4 -5248103#3 -5248103#2"/>
    </vehicle>
    <vehicle id="bus80" type="bus_bus" depart="722.17" departLane="best">
        <route edges="-141913259#7 -141913259#6 -141913259#5 -141913259#4 -159396212#1 -5246845#9 -5246845#8 -5246845#7 -5246845#6 -5246845#5 -5246845#4 -5246845#3"/>
    </vehicle>
    <vehicle id="bus81" type="bus_bus" depart="731.20" departLane="best" departSpeed="max">
        <route edges="5248890#0 -5248873#4 5246845#1 -5247219#6 -5247219#5 -5247219#4 5248603#0 5248603#1 5248603#2 5248603#3 5248603#4 -5248097#5 -5248097#4"/>
    </vehicle>
    <vehicle id="bus82" type="bus_bus" depart="740.23" departLane="best">
        <route edges="424417969#0 -424417969#0 5248257#0 5248257#1 5248257#2 5248257#3 -5248600#6 -5248600#5 -5248600#4 -5248600#3 -5248600#2 -5248600#1 -5248600#0 -5248603#6 5246282#0 5246282#1 5246282#2 -5246845#6 -5246845#5 -5246845#4 -5246845#3 -5246845#2 5247219#7 5247219#8 -5248103#1 -5248873#5"/>
    </vehicle>
    <vehicle id="bus83" type="bus_bus" depart="749.25" departLane="best" departSpeed="max">
        <route edges="5248890#0 -5248873#4 -5246845#0"/>
    </vehicle>
    <vehicle id="bus84" type="bus_bus" depart="758.28" departLane="best">
        <route edges="-424417969#2 -424417969#0 5248257#0 5248257#1 5248257#2 5248257#3 -5248600#6 -5248600#5 -5248600#4 -5248600#3 -5248600#2 -5248600#1 -5248600#0 -5248603#6 -5248603#5 -5248603#4 -5248603#3 -5248603#2 -5248603#1 -5248603#0 -5248605#2 -5248605#1 -5244856#0 123435765#1"/>
    </vehicle>
    <vehicle id="bus85" type="bus_bus" depart="767.31" departLane="best" departSpeed="max">
        <route edges="5246603#0 5246603#1 5248873#0 5248873#1 5248873#2 5248873#3 5246845#1 5247219#7 5247219#8 5248103#2 5248103#3 5248103#4 5248103#5 5248103#6 5248103#7 -5248103#7"/>
    </vehicle>
    <vehicle id="bus86" type="bus_bus" depart="776.34" departLane="best">
        <route edges="-5246897#1 5246897#1 5246897#2 5246897#3 5246897#4 5246845#14 5246845#15"/>
    </vehicle>
    <vehicle id="bus87" type="bus_bus" depart="785.36" departLane="best" departSpeed="max">
        <route edges="5246845#0 5246845#1 5247219#7 5247219#8 5248103#2 5245321#8"/>
    </vehicle>
    <vehicle id="bus88" type="bus_bus" depart="794.39" departLane="best">
        <route edges="-5248103#1 5248103#1 5248103#2 5248103#3 5248103#4 5248103#5 -5248097#10 -5248097#9 -5248097#8 -5248097#7 -5248097#6 5248603#5 5248603#6 5248600#0 5248600#1 5248600#2 5248600#3 -5246897#0 161730983#5 -161730983#5"/>
    </vehicle>
    <vehicle id="bus89" type="bus_bus" depart="803.42" departLane="best" departSpeed="max">
        <route edges="-5248257#8 -5246845#14 -5246845#13 -5246845#12 -5246845#11 -5246845#10 -5246845#9 -5246845#8 56323061#2 -141913259#1 -141913259#0 -5248890#5 5247714#8 -5248103#4 -5248103#3 -5248103#2 -5248103#1 -5248103#0"/>
    </vehicle>
    <vehicle id="bus90" type="bus_bus" depart="812.45" departLane="best">
        <route edges="5248605#1 5248605#2 5248603#0 5248603#1 5248603#2 5248603#3 5248603#4 5248603#5 5246282#0 5246282#1"/>
    </vehicle>
    <vehicle id="bus91" type="bus_bus" depart="821.47" departLane="best" departSpeed="max">
        <route edges="-5247219#9 5248103#2 5248103#3 5248103#4 5248103#5 -5248097#10 -5248097#9 5246845#6 5246845#7 -56323061#1 238902094#8 -161731011 159396207 -171479232#8 -171479232#7 -171479232#6 -171479232#4 -171479232#3 315934747"/>
    </vehicle>
    <vehicle id="bus92" type="bus_bus" depart="830.50" departLane="best">
        <route edges="-5248873#0 5248873#0 5248605#2 5248603#0 5248603#1 5248603#2 5248603#3 5248603#4 5248603#5 5248603#6 5247826#4 159396209 161731011 159396212#0 -5246845#9 5248465#0 5248465#1 5248465#2"/>
    </vehicle>
    <vehicle id="bus93" type="bus_bus" depart="839.53" departLane="best">
        <route edges="5247714#5 5247714#6 5246845#5 5246845#6 5246845#7 5246845#8 5246845#9 159396212#1 159396212#2 5248103#10 5248103#11 5246897#7"/>
    </vehicle>
    <vehicle id="bus94" type="bus_bus" depart="848.55" departLane="best" departSpeed="max">
        <route edges="-5248465#2 -5248103#8 -5248103#7 -5246282#4 -5246282#3 -5246845#6 -5246845#5 -5246845#4 -5243462#6 -5243462#5 -5243462#4 5243462#4"/>
    </vehicle>
    <vehicle id="bus95" type="bus_bus" depart="857.58" departLane="best">
        <route edges="48232853#4 -48232853#4 -48232853#3 -48232853#2 -48232853#1 -48232853#0 -159396202 -161731011 159396207 -5247826#4 -5248603#6 -5248603#5 -5248603#4 -5248603#3 -5248603#2 -5248603#1 -5248603#0 -5248605#2 -5248605#1 -5244856#0 -123435765#0"/>
    </vehicle>
    <vehicle id="bus96" type="bus_bus" depart="866.61" departLane="best">
        <route edges="5246845#13 -5246845#13 -5246845#12 -5246845#11 -5246845#10 -5246845#9 -5246845#8 56323061#2 -141913259#1 -141913259#0 -5248890#5 -5248890#4 -5248890#3 -5248890#2 5247219#8"/>
    </vehicle>
    <vehicle id="bus97" type="bus_bus" depart="875.64" departLane="best" departSpeed="max">
        <route edges="123435765#0 5244856#0 5248605#1 5248605#2 5248603#0 5248603#1 5248603#2 5248603#3 5248603#4 5248603#5 5248603#6 5247826#4 159396209 161731011 159396212#0 -159396212#0"/>
    </vehicle>
    <vehicle id="bus98" type="bus_bus" depart="884.66" departLane="best">
        <route edges="5248257#3 -5248600#6 -5248600#5 -5248600#4 -5248600#3 -5248600#2 -5248600#1 -5248600#0 -5248603#6 -5248603#5 -5248603#4 5247714#2 49682101#3 49682101#4 49682101#5"/>
    </vehicle>
    <vehicle id="bus99" type="bus_bus" depart="893.69" departLane="best" departSpeed="max">
        <route edges="-161730983#9 5248257#0 5248257#1 5248257#2 5248257#3 -5248600#6 -5248600#5 -5248600#4 -5248600#3 -5248600#2 -5248600#1 -5248600#0 -5248603#6 5246282#0 5246282#1 5246282#2 -5246845#6 -5248097#8"/>
    </vehicle>
    <vehicle id="bus100" type="bus_bus" depart="902.72" departLane="best" departSpeed="max">