<?xml version="1.0" encoding="UTF-8"?>

<!-- generated on 01/27/19 19:18:43 by Eclipse SUMO duarouter Version v1_1_0+0008-ffcb6ceee0
<configuration xmlns:xsi="http://www.w3.org/2001/XMLSchema-instance" xsi:noNamespaceSchemaLocation="http://sumo.dlr.de/xsd/duarouterConfiguration.xsd">

    <input>
        <net-file value="C:\Users\sunde\Documents\GitHub\AR-Sandbox-for-Construction-Planning\src\AR_Sumobox\Assets\Generated\Networks\new_network\osm.net.xml"/>
        <route-files value="C:\Users\sunde\Documents\GitHub\AR-Sandbox-for-Construction-Planning\src\AR_Sumobox\Assets\Generated\Networks\new_network\osm.motorcycle.trips.xml"/>
    </input>

    <output>
        <output-file value="C:\Users\sunde\Documents\GitHub\AR-Sandbox-for-Construction-Planning\src\AR_Sumobox\Assets\Generated\Networks\new_network\osm.motorcycle.rou.xml"/>
        <alternatives-output value="C:\Users\sunde\Documents\GitHub\AR-Sandbox-for-Construction-Planning\src\AR_Sumobox\Assets\Generated\Networks\new_network\osm.motorcycle.rou.alt.xml"/>
    </output>

    <time>
        <begin value="0"/>
        <end value="3600.0"/>
    </time>

    <report>
        <no-warnings value="true"/>
        <ignore-errors value="true"/>
        <no-step-log value="true"/>
    </report>

</configuration>
-->

<routes xmlns:xsi="http://www.w3.org/2001/XMLSchema-instance" xsi:noNamespaceSchemaLocation="http://sumo.dlr.de/xsd/routes_file.xsd">
    <vType id="moto_motorcycle" vClass="motorcycle"/>
    <vehicle id="moto0" type="moto_motorcycle" depart="0.00" departLane="best">
        <route edges="48232853#4 5248257#6 5248257#7 -5246845#14 5246897#5 -141913259#7 -141913259#6 -141913259#5 -141913259#4"/>
    </vehicle>
    <vehicle id="moto1" type="moto_motorcycle" depart="9.03" departLane="best">
        <route edges="-5247219#6 238902094#2 238902094#3 238902094#4 238902094#5 238902094#6 238902094#7 238902094#8 -161731011 159396207 -171479232#8 -171479232#7 -171479232#6 -171479232#4 -5246897#2"/>
    </vehicle>
    <vehicle id="moto2" type="moto_motorcycle" depart="18.05" departLane="best">
        <route edges="5246845#13 -5246845#13 -5246845#12 -5246845#11 -5246845#10 -159396212#0 -161731011 159396207 49682101#0 49682101#1 49682101#2 49682101#3 49682101#4 49682101#5 49682101#6 5245321#4"/>
    </vehicle>
    <vehicle id="moto3" type="moto_motorcycle" depart="27.08" departLane="best">
        <route edges="5248257#3 5248257#4 -171479232#0"/>
    </vehicle>
    <vehicle id="moto4" type="moto_motorcycle" depart="36.11" departLane="best">
        <route edges="-5248603#2 5248603#2 5248603#3 5248603#4 5248603#5 5248603#6 5247826#4 159396209 161731011 159396212#0 159396212#1 141913259#4 141913259#5 141913259#6 -141913259#6"/>
    </vehicle>
    <vehicle id="moto5" type="moto_motorcycle" depart="45.14" departLane="best" departSpeed="max">
        <route edges="-5246845#15 -5246845#14 -5246845#13 -5246845#12 -5246845#11 -5246845#10 -159396212#0 -161731011 159396207 159396209"/>
    </vehicle>
    <vehicle id="moto6" type="moto_motorcycle" depart="54.16" departLane="best">
        <route edges="-141913259#7 141913259#7 -5246897#5 5246845#14 -5246845#14"/>
    </vehicle>
    <vehicle id="moto7" type="moto_motorcycle" depart="63.19" departLane="best">
        <route edges="49682101#3 49682101#4 -5243462#2 5248603#2 5248603#3 5248603#4 5248603#5 5248603#6 5247826#4 159396209 161731011"/>
    </vehicle>
    <vehicle id="moto8" type="moto_motorcycle" depart="72.22" departLane="best" departSpeed="max">
        <route edges="-5246845#15 -5248257#7 -5248257#6 -5248257#5 -5248257#4 -5248257#3 -5248257#2 -5248257#1 -5248257#0 424417969#0 424417969#2 424417969#3 424417969#4 424417969#5"/>
    </vehicle>
    <vehicle id="moto9" type="moto_motorcycle" depart="81.24" departLane="best">
        <route edges="5247714#4 -5247714#4 -5247714#3 49682101#3 49682101#4 -5243462#2 -5248603#1 -5248603#0 -5248605#2 -5248873#0 -123435765#1"/>
    </vehicle>
    <vehicle id="moto10" type="moto_motorcycle" depart="90.27" departLane="best">
        <route edges="5247714#2 5247714#3 5247714#4 5247714#5 5247714#6 5246845#5 5246845#6 5246282#3 5246282#4"/>
    </vehicle>
    <vehicle id="moto11" type="moto_motorcycle" depart="99.30" departLane="best">
        <route edges="-5248097#7 49682101#2 49682101#3 49682101#4 49682101#5 49682101#6 -5245321#3"/>
    </vehicle>
    <vehicle id="moto12" type="moto_motorcycle" depart="108.33" departLane="best">
        <route edges="5248804#5 -141913259#5 -141913259#4 159396212#2 -5248103#9"/>
    </vehicle>
    <vehicle id="moto13" type="moto_motorcycle" depart="117.35" departLane="best">
        <route edges="-171479232#4 171479232#4 171479232#6 171479232#7 -171479232#7"/>
    </vehicle>
    <vehicle id="moto14" type="moto_motorcycle" depart="126.38" departLane="best">
        <route edges="5248097#6 5248097#7 238902094#6 238902094#7 238902094#8 159396202 48232853#0 48232853#1 48232853#2 48232853#3 48232853#4"/>
    </vehicle>
    <vehicle id="moto15" type="moto_motorcycle" depart="135.41" departLane="best">
        <route edges="5247714#3 5247714#4 5247714#5 5247714#6 5246845#5"/>
    </vehicle>
    <vehicle id="moto16" type="moto_motorcycle" depart="144.43" departLane="best">
        <route edges="159396197#4 -159396197#4 5248097#0 5248097#1 5248097#3 5248097#4 5248097#5 5248097#6 5248097#7 5248097#8 -5246845#5 -5246845#4 -5246845#3 -5246845#2 5247219#7 -5248890#1 5248873#5"/>
    </vehicle>
    <vehicle id="moto17" type="moto_motorcycle" depart="153.46" departLane="best">
        <route edges="-5248257#4 5248257#4 171479232#1 171479232#3 171479232#4 171479232#6"/>
    </vehicle>
    <vehicle id="moto18" type="moto_motorcycle" depart="162.49" departLane="best">
        <route edges="5247961#0 5247961#1 5246603#1 5248873#0 -5248605#1 5244856#1 49682101#10"/>
    </vehicle>
    <vehicle id="moto19" type="moto_motorcycle" depart="171.52" departLane="best">
        <route edges="5248103#10 5248103#11 -5246897#6 -5246897#5 -5246897#4 -5246897#3 -171479232#3 315934747"/>
    </vehicle>
    <vehicle id="moto20" type="moto_motorcycle" depart="180.54" departLane="best">
        <route edges="5245321#7 -5245321#7 -5245321#6 5246845#3 -5243462#6 -5243462#5 -5243462#4 -5243462#3 -5243462#2 5248603#2 5248603#3 5248603#4 -5248097#5 -5248097#4 -5248097#3 -5248097#1 -5248097#0 159396197#4 159396197#5 159396197#6 -159396197#6"/>
    </vehicle>
    <vehicle id="moto21" type="moto_motorcycle" depart="189.57" departLane="best">
        <route edges="-5246845#4 -5243462#6 -5243462#5 -5243462#4 -5243462#3 -5243462#2 5248603#2 5248603#3 5248603#4 -5248097#5 -5248097#4 -5248097#3 -5248097#1 -5248097#0"/>
    </vehicle>
    <vehicle id="moto22" type="moto_motorcycle" depart="198.60" departLane="best">
        <route edges="-161730983#7 -161730983#6 -161730983#5 5246897#0 5246897#1 5246897#2 5246897#3 5246897#4 5246897#5 5246897#6 -5246897#6"/>
    </vehicle>
    <vehicle id="moto23" type="moto_motorcycle" depart="207.62" departLane="best">
        <route edges="-171479232#8 171479232#8 49682101#0 5246282#1 5246282#2 5246282#3 -141913259#0 -5248890#5 5247714#8 -5247714#8"/>
    </vehicle>
    <vehicle id="moto24" type="moto_motorcycle" depart="216.65" departLane="best">
        <route edges="48232853#3 -48232853#3 -5246897#3 -5246897#2 -5246897#1 -5248600#3 -5248600#2 -5248600#1"/>
    </vehicle>
    <vehicle id="moto25" type="moto_motorcycle" depart="225.68" departLane="best">
        <route edges="-5248257#0 5248257#0 5248257#1 5248257#2 5248257#3 -5248600#6 -5248600#5 -5248600#4 -5248600#3 -5248600#2 -5248600#1 -5248600#0 -5248603#6 5246282#0 5246282#1 5246282#2 -5246845#6"/>
    </vehicle>
    <vehicle id="moto26" type="moto_motorcycle" depart="234.71" departLane="best">
        <route edges="-5247219#1 5247219#1 5247219#2 -5248605#2 -5248605#1 5248605#1"/>
    </vehicle>
    <vehicle id="moto27" type="moto_motorcycle" depart="243.73" departLane="best">
        <route edges="49682101#2 5247714#3 5247714#4 238902094#5 238902094#6 238902094#7 238902094#8 159396202 48232853#0 48232853#1 48232853#2 48232853#3 48232853#4 48232853#5 48232853#6"/>
    </vehicle>
    <vehicle id="moto28" type="moto_motorcycle" depart="252.76" departLane="best">
        <route edges="-5245321#2 5245321#2 5245321#3 5245321#4 5245321#5 5246845#3 5246845#4"/>
    </vehicle>
    <vehicle id="moto29" type="moto_motorcycle" depart="261.79" departLane="best">
        <route edges="-5244856#1 5248605#1 5248605#2 5248603#0 5248603#1 -5248603#1"/>
    </vehicle>
    <vehicle id="moto30" type="moto_motorcycle" depart="270.82" departLane="best" departSpeed="max">
        <route edges="56323061#0 238902094#8 -161731011 159396207 -5247826#4 -5248603#6 -5248603#5 -5248603#4 -5248603#3 -5248603#2 -5243462#1 5243462#1"/>
    </vehicle>
    <vehicle id="moto31" type="moto_motorcycle" depart="279.84" departLane="best">
        <route edges="159396219#0 -159396219#0 5247010#2 -123435765#5 5245321#0 5245321#1 5245321#2 5245321#3 5245321#4 5245321#5 5245321#6 5245321#7 5245321#8"/>
    </vehicle>
    <vehicle id="moto32" type="moto_motorcycle" depart="288.87" departLane="best">
        <route edges="5248097#4 5248097#5 -5248603#4 -5248603#3 -5248603#2 -5248603#1 -5248603#0 5247219#4 5247219#5 5247219#6"/>
    </vehicle>
    <vehicle id="moto33" type="moto_motorcycle" depart="297.90" departLane="best">
        <route edges="-5246845#5 5246845#5 5246845#6 5246845#7 5246845#8 5246845#9 159396212#1 141913259#4 141913259#5 141913259#6 141913259#7 -141913259#7"/>
    </vehicle>
    <vehicle id="moto34" type="moto_motorcycle" depart="306.92" departLane="best">
        <route edges="-5247826#2 5247826#2 -5248603#6 -5248603#5 -5248603#4 5247714#2 5247714#3 -5247714#3"/>
    </vehicle>
    <vehicle id="moto35" type="moto_motorcycle" depart="315.95" departLane="best">
        <route edges="-5246845#11 -5246845#10 -159396212#0 -161731011 159396207 -5247826#4 5248600#0 5248600#1 -5248804#1 5248804#1"/>
    </vehicle>
    <vehicle id="moto36" type="moto_motorcycle" depart="324.98" departLane="best">
        <route edges="5248103#6 -5248103#6 -5248103#5 -5248103#4 -5248103#3 -5248103#2 -5248103#1"/>
    </vehicle>
    <vehicle id="moto37" type="moto_motorcycle" depart="334.01" departLane="best">
        <route edges="49682101#6 49682101#7 49682101#8 -5248873#1 -5248605#1"/>
    </vehicle>
    <vehicle id="moto38" type="moto_motorcycle" depart="343.03" departLane="best">
        <route edges="5248600#4 -5248600#4 -5248600#3 -5248600#2 -5248600#1 -5248600#0 -5248603#6 -5248603#5 -5248603#4 -5248603#3 -5248603#2 -5248603#1 -5248603#0 -5248605#2 -5248873#0 123435765#2"/>
    </vehicle>
    <vehicle id="moto39" type="moto_motorcycle" depart="352.06" departLane="best">
        <route edges="-5247219#0 5247219#0 5247219#1 5247219#2 -5247219#2"/>
    </vehicle>
    <vehicle id="moto40" type="moto_motorcycle" depart="361.09" departLane="best">
        <route edges="159396219#2 -159396219#2 -159396219#1 -159396219#0 5247010#2 159396197#0 159396197#1 5247714#0 5247714#1 -5247714#1"/>
    </vehicle>
    <vehicle id="moto41" type="moto_motorcycle" depart="370.11" departLane="best" departSpeed="max">
        <route edges="171479232#0 171479232#1 171479232#3 171479232#4 171479232#6 171479232#7 171479232#8 159396209 161731011 159396212#0 -5246845#9 5248465#0"/>
    </vehicle>
    <vehicle id="moto42" type="moto_motorcycle" depart="379.14" departLane="best" departSpeed="max">
        <route edges="-5248465#2 -5248465#1 -5248465#0 5246845#9 -159396212#0 -161731011 159396207 -171479232#8 -171479232#7 -171479232#6 -171479232#4 -5246897#2 -5246897#1 -5246897#0"/>
    </vehicle>
    <vehicle id="moto43" type="moto_motorcycle" depart="388.17" departLane="best">
        <route edges="56323061#2 141913259#2 -5248465#0 5246845#9 159396212#1"/>
    </vehicle>
    <vehicle id="moto44" type="moto_motorcycle" depart="397.20" departLane="best">
        <route edges="-171479232#3 171479232#3 -5246897#2 -5246897#1 -5248600#3 -5248600#2 -5248600#1 -5248600#0 -5247826#2 -5247826#1 -5247826#0 -159396197#7"/>
    </vehicle>
    <vehicle id="moto45" type="moto_motorcycle" depart="406.22" departLane="best">
        <route edges="-424417969#2 -424417969#0 5248257#0 5248257#1 5248257#2 5248257#3 -5248600#6 -5248600#5 -5248600#4 -5248600#3 -5248600#2 -5248600#1 -5248600#0 -5248603#6 -5248603#5 -5248603#4 5247714#2 49682101#3 49682101#4 49682101#5"/>
    </vehicle>
    <vehicle id="moto46" type="moto_motorcycle" depart="415.25" departLane="best">
        <route edges="5247219#5 5247219#6 -5246845#1 -5248873#3"/>
    </vehicle>
    <vehicle id="moto47" type="moto_motorcycle" depart="424.28" departLane="best">
        <route edges="-159396219#1 -159396219#0 5247010#2 5243462#0 5243462#1 5248603#2 -5248603#2"/>
    </vehicle>
    <vehicle id="moto48" type="moto_motorcycle" depart="433.30" departLane="best">
        <route edges="56323061#2 -56323061#2 -56323061#1 238902094#8 -161731011 159396207 -5247826#4 5248600#0 5248600#1 -5248804#1 -5248804#0 161730983#3"/>
    </vehicle>
    <vehicle id="moto49" type="moto_motorcycle" depart="442.33" departLane="best">
        <route edges="5248873#4 5248873#5 5248103#1 5248103#2 5248103#3"/>
    </vehicle>
    <vehicle id="moto50" type="moto_motorcycle" depart="451.36" departLane="best">
        <route edges="-141913259#0 141913259#0 -5246282#3 5246845#7 5246845#8 5246845#9 5246845#10 5246845#11 5246845#12 5246845#13 5246845#14 5246845#15"/>
    </vehicle>
    <vehicle id="moto51" type="moto_motorcycle" depart="460.39" departLane="best">
        <route edges="5243462#8 -5243462#8 5248890#4 -5247714#7 -5247714#6 -5247714#5 -5247714#4 -5247714#3 -5247714#2 5248603#4 5248603#5 5248603#6 5248600#0 5248600#1 5248600#2 5248600#3 -5246897#0 161730983#5 161730983#6 161730983#7"/>
    </vehicle>
    <vehicle id="moto52" type="moto_motorcycle" depart="469.41" departLane="best">
        <route edges="-5247219#1 -5247219#0 123435765#3 123435765#4 123435765#5 5243462#0 5243462#1"/>
    </vehicle>
    <vehicle id="moto53" type="moto_motorcycle" depart="478.44" departLane="best">
        <route edges="-424417969#3 -424417969#2 -424417969#0 5248257#0 5248257#1 5248257#2 5248257#3 -5248600#6 -5248600#5 -5248600#4 -5248600#3 -5248600#2 -5248600#1 -5248600#0 -5248603#6 5246282#0 5246282#1 5246282#2 -5246845#6 -5246845#5 -5246845#4 -5246845#3 -5246845#2 5247219#7 -5248890#1"/>
    </vehicle>
    <vehicle id="moto54" type="moto_motorcycle" depart="487.47" departLane="best" departSpeed="max">
        <route edges="-5248804#7 -5248804#6 -5248804#5 5248804#5"/>
    </vehicle>
    <vehicle id="moto55" type="moto_motorcycle" depart="496.49" departLane="best">
        <route edges="5248103#6 -5248103#6 -5248097#10 -5248097#9 -5246845#5 -5247714#6 -5247714#5 -5247714#4 -5247714#3 -5247714#2 -5247714#1"/>
    </vehicle>
    <vehicle id="moto56" type="moto_motorcycle" depart="505.52" departLane="best">
        <route edges="123435765#1 -5246603#1 -5246603#0"/>
    </vehicle>
    <vehicle id="moto57" type="moto_motorcycle" depart="514.55" departLane="best">
        <route edges="5248600#3 5246897#1 5246897#2 171479232#4 171479232#6 171479232#7 171479232#8 159396209 161731011 159396212#0 -5246845#9 5248465#0 5248465#1 -5248103#8 5248103#8"/>
    </vehicle>
    <vehicle id="moto58" type="moto_motorcycle" depart="523.58" departLane="best">
        <route edges="-5247714#5 -5247714#4 -5247714#3 49682101#3 49682101#4 -5243462#2 -5243462#1 -5243462#0 5243462#0"/>
    </vehicle>
    <vehicle id="moto59" type="moto_motorcycle" depart="532.60" departLane="best">
        <route edges="238902094#4 -5247714#4 -5247714#3 49682101#3 49682101#4 -5243462#2 -5248603#1 -5245321#2"/>
    </vehicle>
    <vehicle id="moto60" type="moto_motorcycle" depart="541.63" departLane="best">
        <route edges="5246897#1 -5246897#1 5248600#4 5248600#5 5248600#6 -5248257#3 -5248257#2 -5248257#1 -5248257#0 161730983#9"/>
    </vehicle>
    <vehicle id="moto61" type="moto_motorcycle" depart="550.66" departLane="best">
        <route edges="5247010#1 5247010#2 159396197#0 159396197#1 159396197#3 159396197#4 159396197#5 159396197#6 159396197#7 161730983#1 161730983#2 161730983#3 161730983#4"/>
    </vehicle>
    <vehicle id="moto62" type="moto_motorcycle" depart="559.68" departLane="best">
        <route edges="-123435765#1 5244856#0 5248605#1 5248873#1 5248873#2 5248873#3 5246845#1 5247219#7 5247219#8 5248103#2 5248103#3 -5248103#3"/>
    </vehicle>
    <vehicle id="moto63" type="moto_motorcycle" depart="568.71" departLane="best">
        <route edges="-141913259#3 -5248465#0 5246845#9 -159396212#0 -161731011 159396207 -5247826#4 -5248603#6 -5248603#5 -5248603#4 -5248603#3 5248603#3"/>
    </vehicle>
    <vehicle id="moto64" type="moto_motorcycle" depart="577.74" departLane="best">
        <route edges="5248103#7 -5248103#7 -5248103#6 5248097#11"/>
    </vehicle>
    <vehicle id="moto65" type="moto_motorcycle" depart="586.77" departLane="best" departSpeed="max">
        <route edges="-5247714#9 5248103#5 5248103#6 5248103#7 5248103#8 5248103#9 -159396212#2"/>
    </vehicle>
    <vehicle id="moto66" type="moto_motorcycle" depart="595.79" departLane="best">
        <route edges="5248103#7 -56323061#3 -56323061#2 -56323061#1 238902094#8 -161731011 159396207 -5247826#4 5248600#0 5248600#1 5248804#2"/>
    </vehicle>
    <vehicle id="moto67" type="moto_motorcycle" depart="604.82" departLane="best" departSpeed="max">
        <route edges="-161730983#9 5248257#0 5248257#1 5248257#2 5248257#3 -5248600#6 -5248600#5 -5248600#4 -5248600#3 -5248600#2 -5248600#1 -5248600#0 -5248603#6 -5248603#5 -5248603#4 -5247714#1 -5247714#0 -159396197#1 159396197#1"/>
    </vehicle>
    <vehicle id="moto68" type="moto_motorcycle" depart="613.85" departLane="best">
        <route edges="-161730983#2 -161730983#1 -159396197#7 -159396197#6 -159396197#5 -159396197#4 -159396197#3 -159396197#1 -159396197#0 -5247010#2 -5247010#1 5247010#1"/>
    </vehicle>
    <vehicle id="moto69" type="moto_motorcycle" depart="622.87" departLane="best">
        <route edges="5246897#3 -48232853#2 -48232853#1 -48232853#0 -159396202 -161731011 159396207 49682101#0 49682101#1 49682101#2 49682101#3 49682101#4 -5243462#2"/>
    </vehicle>
    <vehicle id="moto70" type="moto_motorcycle" depart="631.90" departLane="best">
        <route edges="-5248890#2 5248890#2 -5245321#6 5246845#3 5246845#4 5246845#5 5246845#6 5246845#7 -56323061#1 238902094#8 -161731011 159396207 -171479232#8 -171479232#7 -171479232#6 -171479232#4 171479232#4"/>
    </vehicle>
    <vehicle id="moto71" type="moto_motorcycle" depart="640.93" departLane="best">
        <route edges="-5247219#0 123435765#3 123435765#4 123435765#5 5243462#0 5243462#1 5248603#2 5248603#3 5248603#4 5248097#6 5248097#7 5248097#8 5246845#6 5246845#7 56323061#2 56323061#3 5248103#8"/>
    </vehicle>
    <vehicle id="moto72" type="moto_motorcycle" depart="649.96" departLane="best">
        <route edges="-5248603#3 5248603#3 5247714#2 5247714#3 5247714#4 5247714#5 5247714#6 5246845#5 5246845#6 5246845#7 -5246845#7"/>
    </vehicle>
    <vehicle id="moto73" type="moto_motorcycle" depart="658.98" departLane="best">
        <route edges="159396197#6 -159396197#6 -159396197#5 -159396197#4 5248097#0 5248097#1 5248097#3 5248097#4 5248097#5 5248097#6 5248097#7 5248097#8 -5246845#5 5246845#5"/>
    </vehicle>
    <vehicle id="moto74" type="moto_motorcycle" depart="668.01" departLane="best" departSpeed="max">
        <route edges="-5246282#5 -5248103#6 -5248103#5 -5248103#4 -5248103#3 -5248103#2 -5248103#1 -5248103#0"/>
    </vehicle>
    <vehicle id="moto75" type="moto_motorcycle" depart="677.04" departLane="best">
        <route edges="56323061#1 -5246845#7 -5246845#6 -5246845#5 -5246845#4 -5243462#6 -5243462#5 5243462#5"/>
    </vehicle>
    <vehicle id="moto76" type="moto_motorcycle" depart="686.06" departLane="best">
        <route edges="-5248804#1 -5248804#0 -161730983#2 -161730983#1 -159396197#7 -159396197#6 -159396197#5 -159396197#4 -159396197#3 -159396197#1 -159396197#0 -5247010#2 159396219#0"/>
    </vehicle>
    <vehicle id="moto77" type="moto_motorcycle" depart="695.09" departLane="best">
        <route edges="-48232853#1 48232853#1 48232853#2 -5246897#3"/>
    </vehicle>
    <vehicle id="moto78" type="moto_motorcycle" depart="704.12" departLane="best">
        <route edges="-5248097#6 5248603#5 5248603#6 5248600#0 5248600#1 5248600#2 5248600#3 5248600#4 5248600#5 5248600#6 -5248257#3 -5248257#2 -5248257#1 -5248257#0 424417969#0 424417969#2 424417969#3 424417969#4"/>
    </vehicle>
    <vehicle id="moto79" type="moto_motorcycle" depart="713.15" departLane="best">
        <route edges="-5246845#5 5246845#5 5246845#6 5246845#7 -56323061#1 238902094#8 -161731011 159396207 -171479232#8 -171479232#7 -171479232#6 -171479232#4 -5246897#2 -5246897#1"/>
    </vehicle>
    <vehicle id="moto80" type="moto_motorcycle" depart="722.17" departLane="best">
        <route edges="-161730983#3 5248804#0 5248804#1 -5248600#1 -5248600#0 -5248603#6 -5248603#5 -5248603#4 -5248603#3 -5248603#2 -5248603#1 5245321#3 49682101#7"/>
    </vehicle>
    <vehicle id="moto81" type="moto_motorcycle" depart="731.20" departLane="best">
        <route edges="-5246845#5 5246845#5 5246845#6 5246845#7 56323061#2 141913259#2 5248465#1 5248465#2"/>
    </vehicle>
    <vehicle id="moto82" type="moto_motorcycle" depart="740.23" departLane="best">
        <route edges="5248103#1 5248103#2 5248103#3 5248103#4 5248103#5 -5248097#10 -5248097#9 -5248097#8 -5248097#7 -5248097#6 5248603#5 5248603#6 5248600#0 5248600#1 -5248804#1 -5248804#0 161730983#3 -161730983#3"/>
    </vehicle>
    <vehicle id="moto83" type="moto_motorcycle" depart="749.25" departLane="best">
        <route edges="-5246845#9 5246845#9 -159396212#0 -161731011 159396207 -5247826#4 -5248603#6 -5248603#5 -5248603#4 -5248603#3 -5248603#2 -5248603#1 -5245321#2 -5245321#1 5245321#1"/>
    </vehicle>
    <vehicle id="moto84" type="moto_motorcycle" depart="758.28" departLane="best">
        <route edges="-5246845#13 -5246845#12 -5246845#11 -5246845#10 -159396212#0 -161731011 159396207 49682101#0 49682101#1 49682101#2 49682101#3 49682101#4 5243462#3 5243462#4 -5243462#4"/>
    </vehicle>
    <vehicle id="moto85" type="moto_motorcycle" depart="767.31" departLane="best">
        <route edges="5248603#6 -5248603#6 -5248603#5 5248097#6 5248097#7 238902094#6"/>
    </vehicle>
    <vehicle id="moto86" type="moto_motorcycle" depart="776.34" departLane="best">
        <route edges="-5248890#1 5248890#1 5247219#8 5247219#9"/>
    </vehicle>
    <vehicle id="moto87" type="moto_motorcycle" depart="785.36" departLane="best">
        <route edges="5247714#3 5247714#4 238902094#5 238902094#6 238902094#7 238902094#8 159396212#0 5246845#10 -5246845#10"/>
    </vehicle>
    <vehicle id="moto88" type="moto_motorcycle" depart="794.39" departLane="best">
        <route edges="-171479232#7 171479232#7 171479232#8 49682101#0 5246282#1 5246282#2 -5246845#6 -5246845#5 -5246845#4 -5246845#3 -5246845#2 5247219#7 -5248890#1 -5248890#0"/>
    </vehicle>
    <vehicle id="moto89" type="moto_motorcycle" depart="803.42" departLane="best">
        <route edges="-5248603#3 5248603#3 5247714#2 5247714#3 5247714#4 5247714#5 5247714#6 5246845#5 5248097#9 141913259#0"/>
    </vehicle>
    <vehicle id="moto90" type="moto_motorcycle" depart="812.45" departLane="best">
        <route edges="5246845#1 -5247219#6 -5247219#5 -5247219#4 5248603#0 5245321#3"/>
    </vehicle>
    <vehicle id="moto91" type="moto_motorcycle" depart="821.47" departLane="best">
        <route edges="5248890#3 5248890#4 -5247714#7 5246845#5 5246845#6 5246845#7 -56323061#1 238902094#8 -161731011 159396207 -171479232#8 -171479232#7"/>
    </vehicle>
    <vehicle id="moto92" type="moto_motorcycle" depart="830.50" departLane="best">
        <route edges="-5248600#1 5248600#1 5248600#2 5248600#3 5248600#4 5248600#5 5248600#6 -5248257#3 -5248257#2 -5248257#1 -5248257#0"/>
    </vehicle>
    <vehicle id="moto93" type="moto_motorcycle" depart="839.53" departLane="best">
        <route edges="5248103#10 -5248103#10 -159396212#2 -159396212#1 -159396212#0 -161731011 159396207 49682101#0 49682101#1 49682101#2 49682101#3 49682101#4 49682101#5 49682101#6 49682101#7 -5247219#4"/>
    </vehicle>
    <vehicle id="moto94" type="moto_motorcycle" depart="848.55" departLane="best">
        <route edges="-5246282#1 5246282#1 5246282#2 5246845#7 -56323061#1"/>
    </vehicle>
    <vehicle id="moto95" type="moto_motorcycle" depart="857.58" departLane="best">
        <route edges="-5248603#2 5248603#2 5248603#3 5247714#2 5247714#3 5247714#4 5247714#5 5247714#6 5247714#7 5247714#8 -5247714#8"/>
    </vehicle>
    <vehicle id="moto96" type="moto_motorcycle" depart="866.61" departLane="best">
        <route edges="-5246897#4 -48232853#2 -48232853#1 -48232853#0 -159396202 -161731011 159396207 -5247826#4 -5248603#6 -5248603#5 -5248603#4 -5248603#3 -5248603#2 -5248603#1 5248603#1"/>
    </vehicle>
    <vehicle id="moto97" type="moto_motorcycle" depart="875.64" departLane="best">
        <route edges="-5248804#3 171479232#7 171479232#8 49682101#0 5246282#1 5246282#2 5246282#3 -141913259#0 -5248890#5 5247714#8 -5248103#4 -5248103#3 5248103#3"/>
    </vehicle>
    <vehicle id="moto98" type="moto_motorcycle" depart="884.66" departLane="best">
        <route edges="159396212#0 -159396212#0 -161731011 -159396209"/>
    </vehicle>
    <vehicle id="moto99" type="moto_motorcycle" depart="893.69" departLane="best">
        <route edges="56323061#3 -56323061#3 -141913259#1 -5246282#3 -5246845#6 -5248097#8 -5248097#7 -5248097#6 -5248097#5 -5248097#4 -5248097#3 5248097#3"/>
    </vehicle>
    <vehicle id="moto100" type="moto_motorcycle" depart="902.72" departLane="best">
        <route edges="5248873#3 5246845#1 -5247219#6 -5247219#5 -5247219#4 5248603#0 5248603#1 5248603#2"/>
    </vehicle>
    <vehicle id="moto101" type="moto_motorcycle" depart="911.74" departLane="best">
        <route edges="5248097#7 238902094#6 -5246282#1 -5246282#0"/>
    </vehicle>
    <vehicle id="moto102" type="moto_motorcycle" depart="920.77" departLane="best">
        <route edges="-56323061#1 238902094#8 159396212#0 -5246845#9 -5246845#8"/>
    </vehicle>
    <vehicle id="moto103" type="moto_motorcycle" depart="929.80" departLane="best">
        <route edges="-5248600#0 5247826#4 159396209 161731011 159396212#0 159396212#1 159396212#2 -159396212#2"/>
    </vehicle>
    <vehicle id="moto104" type="moto_motorcycle" depart="938.83" departLane="best">
        <route edges="-5248257#4 -5248600#6 -5248600#5 -5248600#4 -5248600#3 -5248600#2 -5248600#1 -5248600#0 -5248603#6 5246282#0 5246282#1 5246282#2 5246282#3 -141913259#0 -5248890#5 -5248890#4 5248890#4"/>
    </vehicle>
    <vehicle id="moto105" type="moto_motorcycle" depart="947.85" departLane="best">
        <route edges="-5247219#0 5247219#0 5247219#1 5247219#2 5247219#4 5247219#5 5247219#6 5247219#7 5247219#8 5247219#9"/>
    </vehicle>
    <vehicle id="moto106" type="moto_motorcycle" depart="956.88" departLane="best">
        <route edges="-5248873#0 5248873#0 5248873#1 5248873#2 5248873#3 -5248873#3"/>
    </vehicle>
    <vehicle id="moto107" type="moto_motorcycle" depart="965.91" departLane="best">
        <route edges="5248804#5 -141913259#5 -141913259#4 -141913259#3 -141913259#2 56323061#3"/>
    </vehicle>
    <vehicle id="moto108" type="moto_motorcycle" depart="974.93" departLane="best">
        <route edges="159396212#2 -159396212#2 -159396212#1 5246845#10 5246845#11 5246845#12 5246845#13 5246845#14"/>
    </vehicle>
    <vehicle id="moto109" type="moto_motorcycle" depart="983.96" departLane="best">
        <route edges="-5243462#8 5248890#4 -5247714#7 -5247714#6 -5247714#5 -5247714#4 -5247714#3 -5247714#2 5248603#4 -5248097#5 -5248097#4"/>
    </vehicle>
    <vehicle id="moto110" type="moto_motorcycle" depart="992.99" departLane="best">
        <route edges="5248873#3 5246845#1 5246845#2 5246845#3 5246845#4 5246845#5 5246845#6 5246845#7 -56323061#1 238902094#8 -161731011 159396207 -171479232#8 -171479232#7 -171479232#6 -171479232#4 -171479232#3 315934747"/>
    </vehicle>
    <vehicle id="moto111" type="moto_motorcycle" depart="1002.02" departLane="best">
        <route edges="159396197#7 5247826#0 5247826#1 5247826#2 5248600#0 5248600#1 5248600#2 5248600#3 5246897#1 5246897#2 5246897#3"/>
    </vehicle>
    <vehicle id="moto112" type="moto_motorcycle" depart="1011.04" departLane="best">
        <route edges="123435765#2 5247219#0 5247219#1 5247219#2 5247219#4 5247219#5 5247219#6 5247219#7 5247219#8 -5248103#1 5248103#1"/>
    </vehicle>
    <vehicle id="moto113" type="moto_motorcycle" depart="1020.07" departLane="best" departSpeed="max">
        <route edges="-5243462#9 -5243462#8 -5248890#3 -5245321#6 -5246845#2 -5247219#6 -5247219#5 49682101#8 -5248873#1 -5248873#0 5248873#0"/>
    </vehicle>
    <vehicle id="moto114" type="moto_motorcycle" depart="1029.10" departLane="best">
        <route edges="171479232#7 171479232#8 49682101#0 49682101#1 49682101#2 49682101#3 49682101#4 49682101#5 49682101#6 5245321#4"/>
    </vehicle>
    <vehicle id="moto115" type="moto_motorcycle" depart="1038.12" departLane="best">
        <route edges="-5246845#8 -56323061#1 238902094#8 159396202 48232853#0 48232853#1 48232853#2 48232853#3 48232853#4 -48232853#4"/>
    </vehicle>
    <vehicle id="moto116" type="moto_motorcycle" depart="1047.15" departLane="best">
        <route edges="5248257#3 -5248600#6 -5248600#5 -5248600#4 -5248600#3 -5248600#2 -5248600#1 -5248600#0 -5248603#6 -5248603#5 -5248603#4 -5248603#3 -5248603#2 -5248603#1 -5248603#0 -5247219#2"/>
    </vehicle>
    <vehicle id="moto117" type="moto_motorcycle" depart="1056.18" departLane="best">
        <route edges="171479232#7 171479232#8 49682101#0 49682101#1 49682101#2 49682101#3 49682101#4 49682101#5 49682101#6 49682101#7 49682101#8 49682101#9 49682101#10"/>
    </vehicle>