<?xml version="1.0" encoding="UTF-8"?>

<!-- generated on 01/27/19 19:18:40 by Eclipse SUMO netconvert Version v1_1_0+0008-ffcb6ceee0
<configuration xmlns:xsi="http://www.w3.org/2001/XMLSchema-instance" xsi:noNamespaceSchemaLocation="http://sumo.dlr.de/xsd/netconvertConfiguration.xsd">

    <input>
        <type-files value="C:\Sumo\data\typemap\osmNetconvert.typ.xml,C:\Sumo\data\typemap\osmNetconvertUrbanDe.typ.xml,C:\Sumo\data\typemap\osmNetconvertPedestrians.typ.xml,C:\Sumo\data\typemap\osmNetconvertBicycle.typ.xml"/>
        <osm-files value="osm_bbox.osm.xml"/>
    </input>

    <output>
        <output-file value="osm.net.xml"/>
        <output.street-names value="true"/>
        <output.original-names value="true"/>
        <ptstop-output value="osm_stops.add.xml"/>
        <ptline-output value="osm_ptlines.xml"/>
    </output>

    <projection>
        <proj.utm value="true"/>
    </projection>

    <processing>
        <geometry.remove value="true"/>
        <roundabouts.guess value="true"/>
    </processing>

    <tls_building>
        <tls.discard-simple value="true"/>
        <tls.join value="true"/>
        <tls.guess-signals value="true"/>
        <tls.default-type value="actuated"/>
    </tls_building>

    <ramp_guessing>
        <ramps.guess value="true"/>
    </ramp_guessing>

    <junctions>
        <junctions.join value="true"/>
        <junctions.corner-detail value="5"/>
    </junctions>

    <pedestrian>
        <crossings.guess value="true"/>
    </pedestrian>

    <railway>
        <railway.topology.repair value="true"/>
    </railway>

    <report>
        <verbose value="true"/>
    </report>

</configuration>
-->

<net version="1.1" junctionCornerDetail="5" walkingareas="true" limitTurnSpeed="5.50" xmlns:xsi="http://www.w3.org/2001/XMLSchema-instance" xsi:noNamespaceSchemaLocation="http://sumo.dlr.de/xsd/net_file.xsd">

    <location netOffset="-477307.88,-4933802.32" convBoundary="0.00,0.00,2296.37,3636.53" origBoundary="-123.285799,44.557235,-123.256855,44.589960" projParameter="+proj=utm +zone=10 +ellps=WGS84 +datum=WGS84 +units=m +no_defs"/>

    <type id="cycleway.lane" allow="bicycle" bikeLaneWidth="1.00"/>
    <type id="cycleway.lane|cycleway.opposite_lane|highway.service" priority="2" numLanes="1" speed="13.89" allow="delivery bicycle pedestrian" oneway="0" bikeLaneWidth="1.00"/>
    <type id="cycleway.lane|highway.secondary" priority="7" numLanes="2" speed="13.89" disallow="tram rail_urban rail rail_electric pedestrian ship" oneway="0" sidewalkWidth="3.00" bikeLaneWidth="1.00"/>
    <type id="cycleway.lane|highway.secondary_link" priority="6" numLanes="1" speed="13.89" disallow="tram rail_urban rail rail_electric pedestrian ship" oneway="0" sidewalkWidth="3.00" bikeLaneWidth="1.00"/>
    <type id="cycleway.lane|highway.service" priority="2" numLanes="1" speed="13.89" allow="delivery bicycle pedestrian" oneway="0" bikeLaneWidth="1.00"/>
    <type id="cycleway.lane|highway.tertiary" priority="6" numLanes="1" speed="13.89" disallow="tram rail_urban rail rail_electric pedestrian ship" oneway="0" sidewalkWidth="3.00" bikeLaneWidth="1.00"/>
    <type id="cycleway.opposite_lane" allow="bicycle" bikeLaneWidth="1.00"/>
    <type id="cycleway.opposite_lane|highway.service" priority="2" numLanes="1" speed="13.89" allow="delivery bicycle pedestrian" oneway="0" bikeLaneWidth="1.00"/>
    <type id="cycleway.opposite_track" allow="bicycle" bikeLaneWidth="1.50"/>
    <type id="cycleway.track" allow="bicycle" bikeLaneWidth="1.50"/>
    <type id="highway.bridleway" priority="1" numLanes="1" speed="2.78" allow="pedestrian" oneway="1" width="2.00"/>
    <type id="highway.bus_guideway" priority="1" numLanes="1" speed="13.89" allow="bus" oneway="1"/>
    <type id="highway.cycleway" priority="1" numLanes="1" speed="8.33" allow="bicycle" oneway="0" width="1.00"/>
    <type id="highway.footway" priority="1" numLanes="1" speed="2.78" allow="pedestrian" oneway="1" width="2.00"/>
    <type id="highway.ford" priority="1" numLanes="1" speed="2.78" allow="army" oneway="0"/>
    <type id="highway.living_street" priority="3" numLanes="1" speed="2.78" disallow="tram rail_urban rail rail_electric ship" oneway="0"/>
    <type id="highway.motorway" priority="13" numLanes="2" speed="27.78" allow="private emergency authority army vip passenger hov taxi bus coach delivery truck trailer motorcycle evehicle custom1 custom2" oneway="1"/>
    <type id="highway.motorway_link" priority="12" numLanes="1" speed="16.67" allow="private emergency authority army vip passenger hov taxi bus coach delivery truck trailer motorcycle evehicle custom1 custom2" oneway="1"/>
    <type id="highway.path" priority="1" numLanes="1" speed="2.78" allow="bicycle pedestrian" oneway="1" width="2.00"/>
    <type id="highway.pedestrian" priority="1" numLanes="1" speed="2.78" allow="pedestrian" oneway="1" width="2.00"/>
    <type id="highway.primary" priority="9" numLanes="2" speed="13.89" disallow="tram rail_urban rail rail_electric pedestrian ship" oneway="0" sidewalkWidth="3.00"/>
    <type id="highway.primary_link" priority="8" numLanes="1" speed="13.89" disallow="tram rail_urban rail rail_electric pedestrian ship" oneway="0" sidewalkWidth="3.00"/>
    <type id="highway.raceway" priority="14" numLanes="2" speed="83.33" allow="vip" oneway="0"/>
    <type id="highway.residential" priority="4" numLanes="1" speed="13.89" disallow="tram rail_urban rail rail_electric pedestrian ship" oneway="0" sidewalkWidth="2.00"/>
    <type id="highway.secondary" priority="7" numLanes="2" speed="13.89" disallow="tram rail_urban rail rail_electric pedestrian ship" oneway="0" sidewalkWidth="3.00"/>
    <type id="highway.secondary_link" priority="6" numLanes="1" speed="13.89" disallow="tram rail_urban rail rail_electric pedestrian ship" oneway="0" sidewalkWidth="3.00"/>
    <type id="highway.service" priority="2" numLanes="1" speed="5.56" allow="delivery bicycle pedestrian" oneway="0"/>
    <type id="highway.stairs" priority="1" numLanes="1" speed="1.39" allow="pedestrian" oneway="1" width="2.00"/>
    <type id="highway.step" priority="1" numLanes="1" speed="1.39" allow="pedestrian" oneway="1" width="2.00"/>
    <type id="highway.steps" priority="1" numLanes="1" speed="1.39" allow="pedestrian" oneway="1" width="2.00"/>
    <type id="highway.tertiary" priority="6" numLanes="1" speed="13.89" disallow="tram rail_urban rail rail_electric pedestrian ship" oneway="0" sidewalkWidth="3.00"/>
    <type id="highway.tertiary_link" priority="5" numLanes="1" speed="13.89" disallow="tram rail_urban rail rail_electric pedestrian ship" oneway="0" sidewalkWidth="2.00"/>
    <type id="highway.track" priority="1" numLanes="1" speed="5.56" disallow="tram rail_urban rail rail_electric ship" oneway="0"/>
    <type id="highway.trunk" priority="11" numLanes="2" speed="13.89" disallow="tram rail_urban rail rail_electric bicycle pedestrian ship" oneway="0"/>
    <type id="highway.trunk_link" priority="10" numLanes="1" speed="13.89" disallow="tram rail_urban rail rail_electric bicycle pedestrian ship" oneway="0"/>
    <type id="highway.unclassified" priority="5" numLanes="1" speed="13.89" disallow="tram rail_urban rail rail_electric pedestrian ship" oneway="0" sidewalkWidth="2.00"/>
    <type id="highway.unsurfaced" priority="1" numLanes="1" speed="8.33" disallow="tram rail_urban rail rail_electric ship" oneway="0"/>
    <type id="railway.light_rail" priority="15" numLanes="1" speed="27.78" allow="rail_urban" oneway="1"/>
    <type id="railway.preserved" priority="15" numLanes="1" speed="27.78" allow="rail" oneway="1"/>
    <type id="railway.rail" priority="15" numLanes="1" speed="83.33" allow="rail rail_electric" oneway="1"/>
    <type id="railway.subway" priority="15" numLanes="1" speed="27.78" allow="rail_urban" oneway="1"/>
    <type id="railway.tram" priority="15" numLanes="1" speed="13.89" allow="tram" oneway="1"/>

    <edge id=":1042444668_w0" function="walkingarea">
        <lane id=":1042444668_w0_0" index="0" allow="pedestrian" speed="1.00" length="4.80" width="2.00" shape="842.44,998.73 842.55,996.73 838.42,994.14 837.04,995.58 836.63,996.62 836.62,998.62"/>
    </edge>
    <edge id=":1072136300_0" function="internal">
        <lane id=":1072136300_0_0" index="0" allow="bicycle" speed="13.89" length="4.99" width="1.00" shape="711.41,1032.08 711.38,1027.09"/>
    </edge>
    <edge id=":1072136300_1" function="internal">
        <lane id=":1072136300_1_0" index="0" allow="delivery bicycle pedestrian" speed="3.21" length="0.91" shape="711.41,1032.08 711.91,1031.31"/>
    </edge>
    <edge id=":1072136300_4" function="internal">
        <lane id=":1072136300_4_0" index="0" allow="delivery bicycle pedestrian" speed="3.21" length="3.76" shape="711.91,1031.31 712.20,1030.87 712.99,1030.46 713.79,1030.84 714.61,1032.03"/>
    </edge>
    <edge id=":1072136300_2" function="internal">
        <lane id=":1072136300_2_0" index="0" allow="delivery bicycle pedestrian" speed="13.89" length="4.96" shape="713.48,1027.09 713.51,1032.05"/>
    </edge>
    <edge id=":1072136300_3" function="internal">
        <lane id=":1072136300_3_0" index="0" allow="bicycle" speed="2.68" length="0.73" width="1.00" shape="712.38,1027.09 712.13,1027.46 711.88,1027.59"/>
    </edge>
    <edge id=":1072136300_5" function="internal">
        <lane id=":1072136300_5_0" index="0" allow="bicycle" speed="2.68" length="0.73" width="1.00" shape="711.88,1027.59 711.63,1027.46 711.38,1027.09"/>
    </edge>
    <edge id=":1072136300_c0" function="crossing" crossingEdges="-5248440#3">
        <lane id=":1072136300_c0_0" index="0" allow="pedestrian" speed="1.00" length="1.00" width="4.00" shape="710.88,1029.09 711.88,1029.09"/>
    </edge>
    <edge id=":1072136300_w0" function="walkingarea">
        <lane id=":1072136300_w0_0" index="0" allow="pedestrian" speed="1.00" length="3.63" width="4.00" shape="711.91,1032.07 715.11,1032.03 715.08,1027.09 711.88,1027.09 711.88,1031.09"/>
    </edge>
    <edge id=":1072136300_w1" function="walkingarea">
        <lane id=":1072136300_w1_0" index="0" allow="pedestrian" speed="1.00" length="1.59" width="4.00" shape="710.88,1031.09 710.88,1027.09 709.38,1028.55 709.33,1030.55"/>
    </edge>
    <edge id=":1072181473_0" function="internal">
        <lane id=":1072181473_0_0" index="0" allow="delivery bicycle pedestrian" speed="5.56" length="6.64" shape="857.49,1142.12 855.60,1142.54 854.22,1142.46 852.84,1142.35 850.93,1142.73"/>
    </edge>
    <edge id=":1072181473_1" function="internal">
        <lane id=":1072181473_1_0" index="0" allow="delivery bicycle pedestrian" speed="3.65" length="4.67" shape="857.49,1142.12 856.08,1141.78 855.43,1141.17 855.53,1140.28 856.39,1139.11"/>
    </edge>
    <edge id=":1072181473_2" function="internal">
        <lane id=":1072181473_2_0" index="0" allow="delivery bicycle pedestrian" speed="4.96" length="5.09" shape="852.48,1137.12 853.05,1138.41 853.90,1139.17 855.01,1139.41 856.39,1139.11"/>
    </edge>
    <edge id=":1072181473_3" function="internal">
        <lane id=":1072181473_3_0" index="0" allow="delivery bicycle pedestrian" speed="5.56" length="6.48" shape="852.48,1137.12 852.88,1139.21 852.75,1140.85 852.10,1142.02 850.93,1142.73"/>
    </edge>
    <edge id=":1072181473_w0" function="walkingarea">
        <lane id=":1072181473_w0_0" index="0" allow="pedestrian" speed="1.00" length="5.60" width="3.20" shape="858.04,1143.62 856.94,1140.62 856.94,1140.62 855.84,1137.61 854.02,1136.68 850.94,1137.56 850.42,1141.22 851.44,1144.25 856.69,1143.99 855.64,1144.05 854.75,1143.96 853.86,1143.87 852.81,1143.91"/>
    </edge>
    <edge id=":1072181512_0" function="internal">
        <lane id=":1072181512_0_0" index="0" allow="delivery bicycle pedestrian" speed="5.02" length="5.02" shape="894.79,1131.79 894.16,1130.56 893.29,1129.84 892.18,1129.62 890.83,1129.90"/>
    </edge>
    <edge id=":1072181512_1" function="internal">
        <lane id=":1072181512_1_0" index="0" allow="delivery bicycle pedestrian" speed="3.65" length="4.67" shape="894.79,1131.79 895.16,1130.39 895.79,1129.75 896.67,1129.87 897.82,1130.74"/>
    </edge>
    <edge id=":1072181512_2" function="internal">
        <lane id=":1072181512_2_0" index="0" allow="delivery bicycle pedestrian" speed="5.56" length="10.26" shape="889.73,1126.90 892.49,1126.32 894.76,1126.76 896.53,1128.24 897.82,1130.74"/>
    </edge>
    <edge id=":1072181512_3" function="internal">
        <lane id=":1072181512_3_0" index="0" allow="delivery bicycle pedestrian" speed="3.65" length="4.67" shape="889.73,1126.90 891.14,1127.24 891.79,1127.85 891.69,1128.74 890.83,1129.90"/>
    </edge>
    <edge id=":1072181512_w0" function="walkingarea">
        <lane id=":1072181512_w0_0" index="0" allow="pedestrian" speed="1.00" length="6.67" width="3.20" shape="893.28,1132.31 896.31,1131.27 896.31,1131.27 899.33,1130.22 894.27,1122.02 892.37,1122.63 889.18,1125.40 890.28,1128.40 890.28,1128.40 891.38,1131.41 893.09,1131.89 892.85,1131.58 892.56,1131.37 892.22,1131.28 891.83,1131.29"/>
    </edge>
    <edge id=":1072181515_0" function="internal">
        <lane id=":1072181515_0_0" index="0" allow="delivery bicycle pedestrian" speed="5.56" length="0.49" shape="831.35,1117.47 831.35,1117.33 831.36,1117.23 831.38,1117.13 831.42,1116.99"/>
    </edge>
    <edge id=":1072181524_0" function="internal">
        <lane id=":1072181524_0_0" index="0" allow="bicycle" speed="13.89" length="5.00" width="1.00" shape="879.23,1061.06 874.23,1061.13"/>
    </edge>
    <edge id=":1072181524_1" function="internal">
        <lane id=":1072181524_1_0" index="0" allow="delivery bicycle pedestrian" speed="3.21" length="0.90" shape="879.23,1061.06 878.47,1060.57"/>
    </edge>
    <edge id=":1072181524_4" function="internal">
        <lane id=":1072181524_4_0" index="0" allow="delivery bicycle pedestrian" speed="3.21" length="3.77" shape="878.47,1060.57 878.02,1060.28 877.61,1059.49 877.99,1058.68 879.18,1057.86"/>
    </edge>
    <edge id=":1072181524_2" function="internal">
        <lane id=":1072181524_2_0" index="0" allow="delivery bicycle pedestrian" speed="13.89" length="4.99" shape="874.21,1059.03 879.20,1058.96"/>
    </edge>
    <edge id=":1072181524_3" function="internal">
        <lane id=":1072181524_3_0" index="0" allow="bicycle" speed="2.68" length="0.73" width="1.00" shape="874.22,1060.13 874.60,1060.37 874.73,1060.62"/>
    </edge>
    <edge id=":1072181524_5" function="internal">
        <lane id=":1072181524_5_0" index="0" allow="bicycle" speed="2.68" length="0.73" width="1.00" shape="874.73,1060.62 874.60,1060.87 874.23,1061.13"/>
    </edge>
    <edge id=":1072181524_c0" function="crossing" crossingEdges="-159396225#9">
        <lane id=":1072181524_c0_0" index="0" allow="pedestrian" speed="1.00" length="1.00" width="4.00" shape="877.22,1060.59 877.24,1061.59"/>
    </edge>
    <edge id=":1072181524_w0" function="walkingarea">
        <lane id=":1072181524_w0_0" index="0" allow="pedestrian" speed="1.00" length="1.59" width="4.00" shape="875.79,1063.15 877.78,1063.08 879.24,1061.56 875.24,1061.62"/>
    </edge>
    <edge id=":1072181524_w1" function="walkingarea">
        <lane id=":1072181524_w1_0" index="0" allow="pedestrian" speed="1.00" length="3.65" width="4.00" shape="875.22,1060.62 879.22,1060.56 879.17,1057.36 874.19,1057.43 874.23,1060.63"/>
    </edge>
    <edge id=":1072208612_0" function="internal">
        <lane id=":1072208612_0_0" index="0" disallow="tram rail_urban rail rail_electric pedestrian ship" speed="3.65" length="4.67" shape="539.36,1158.29 540.18,1157.10 540.98,1156.72 541.78,1157.13 542.56,1158.34"/>
    </edge>
    <edge id=":1072208612_w0" function="walkingarea">
        <lane id=":1072208612_w0_0" index="0" allow="pedestrian" speed="1.00" length="6.23" width="2.00" shape="544.16,1158.37 546.16,1158.40 541.96,1155.34 539.96,1155.36 535.76,1158.23 537.76,1158.27"/>
    </edge>
    <edge id=":1077501088_0" function="internal">
        <lane id=":1077501088_0_0" index="0" allow="bicycle" speed="11.18" length="4.97" width="1.00" shape="1210.15,1065.34 1205.49,1067.05"/>
        <lane id=":1077501088_0_1" index="1" disallow="tram rail_urban rail rail_electric pedestrian ship" speed="11.18" length="4.97" shape="1209.43,1063.37 1204.76,1065.08"/>
    </edge>
    <edge id=":1077501088_2" function="internal">
        <lane id=":1077501088_2_0" index="0" disallow="tram rail_urban rail rail_electric pedestrian ship" speed="3.65" length="2.34" shape="1209.43,1063.37 1208.03,1063.03 1207.38,1062.41"/>
    </edge>
    <edge id=":1077501088_6" function="internal">
        <lane id=":1077501088_6_0" index="0" disallow="tram rail_urban rail rail_electric pedestrian ship" speed="3.65" length="2.34" shape="1207.38,1062.41 1207.48,1061.52 1208.33,1060.36"/>
    </edge>
    <edge id=":1077501088_3" function="internal">
        <lane id=":1077501088_3_0" index="0" allow="bicycle" speed="11.18" length="4.98" width="1.00" shape="1202.93,1060.11 1207.61,1058.39"/>
        <lane id=":1077501088_3_1" index="1" disallow="tram rail_urban rail rail_electric pedestrian ship" speed="11.18" length="4.98" shape="1203.66,1062.08 1208.33,1060.36"/>
    </edge>
    <edge id=":1077501088_5" function="internal">
        <lane id=":1077501088_5_0" index="0" disallow="tram rail_urban rail rail_electric pedestrian ship" speed="3.65" length="2.34" shape="1203.66,1062.08 1205.06,1062.41 1205.71,1063.02"/>
    </edge>
    <edge id=":1077501088_7" function="internal">
        <lane id=":1077501088_7_0" index="0" disallow="tram rail_urban rail rail_electric pedestrian ship" speed="3.65" length="2.34" shape="1205.71,1063.02 1205.61,1063.91 1204.76,1065.08"/>
    </edge>
    <edge id=":1077501088_c0" function="crossing" crossingEdges="-123435765#3 123435765#3">
        <lane id=":1077501088_c0_0" index="0" allow="pedestrian" speed="1.00" length="8.40" width="4.00" shape="1205.56,1058.60 1208.44,1066.49"/>
    </edge>
    <edge id=":1077501088_w0" function="walkingarea">
        <lane id=":1077501088_w0_0" index="0" allow="pedestrian" speed="1.00" length="3.59" width="4.00" shape="1205.66,1067.52 1206.70,1070.33 1211.35,1068.63 1210.32,1065.81 1206.56,1067.18"/>
    </edge>
    <edge id=":1077501088_w1" function="walkingarea">
        <lane id=":1077501088_w1_0" index="0" allow="pedestrian" speed="1.00" length="3.86" width="4.00" shape="1203.68,1059.29 1207.44,1057.92 1206.41,1055.10 1204.37,1054.16 1202.56,1055.00 1201.72,1056.82 1202.76,1059.64"/>
    </edge>
    <edge id=":1077501311_0" function="internal">
        <lane id=":1077501311_0_0" index="0" disallow="tram rail_urban rail rail_electric pedestrian ship" speed="13.89" length="6.57" shape="1179.98,1027.35 1185.55,1023.86"/>
    </edge>
    <edge id=":1077501311_c0" function="crossing" crossingEdges="5247961#1">
        <lane id=":1077501311_c0_0" index="0" allow="pedestrian" speed="1.00" length="3.20" width="4.00" shape="1183.00,1023.59 1184.72,1026.29"/>
    </edge>
    <edge id=":1077501311_w0" function="walkingarea">
        <lane id=":1077501311_w0_0" index="0" allow="pedestrian" speed="1.00" length="1.69" width="4.00" shape="1184.81,1028.50 1186.21,1027.07 1186.41,1025.21 1183.03,1027.36"/>
    </edge>
    <edge id=":1077501311_w1" function="walkingarea">
        <lane id=":1077501311_w1_0" index="0" allow="pedestrian" speed="1.00" length="4.43" width="4.00" shape="1181.31,1024.66 1184.69,1022.51 1183.61,1020.83 1179.54,1021.00 1178.23,1022.51 1178.09,1024.29 1179.14,1025.99"/>
    </edge>
    <edge id=":1077501341_0" function="internal">
        <lane id=":1077501341_0_0" index="0" allow="bicycle" speed="13.89" length="8.56" width="1.00" shape="1017.41,967.60 1013.45,960.08"/>
        <lane id=":1077501341_0_1" index="1" disallow="tram rail_urban rail rail_electric bicycle pedestrian ship" speed="13.89" length="8.56" shape="1019.31,966.69 1015.28,959.05"/>
    </edge>
    <edge id=":1077501341_2" function="internal">
        <lane id=":1077501341_2_0" index="0" disallow="tram rail_urban rail rail_electric pedestrian ship" speed="3.65" length="2.34" shape="1019.31,966.69 1019.51,965.26 1020.05,964.55"/>
    </edge>
    <edge id=":1077501341_6" function="internal">
        <lane id=":1077501341_6_0" index="0" disallow="tram rail_urban rail rail_electric pedestrian ship" speed="3.65" length="2.34" shape="1020.05,964.55 1020.95,964.56 1022.19,965.30"/>
    </edge>
    <edge id=":1077501341_3" function="internal">
        <lane id=":1077501341_3_0" index="0" allow="bicycle" speed="13.89" length="8.91" width="1.00" shape="1019.89,956.45 1024.08,964.39"/>
        <lane id=":1077501341_3_1" index="1" disallow="tram rail_urban rail rail_electric pedestrian ship" speed="13.89" length="8.91" shape="1018.07,957.48 1022.19,965.30"/>
    </edge>
    <edge id=":1077501341_5" function="internal">
        <lane id=":1077501341_5_0" index="0" disallow="tram rail_urban rail rail_electric bicycle pedestrian ship" speed="3.65" length="2.34" shape="1018.07,957.48 1017.96,958.92 1017.46,959.66"/>
    </edge>
    <edge id=":1077501341_7" function="internal">
        <lane id=":1077501341_7_0" index="0" disallow="tram rail_urban rail rail_electric bicycle pedestrian ship" speed="3.65" length="2.34" shape="1017.46,959.66 1016.57,959.70 1015.28,959.05"/>
    </edge>
    <edge id=":1077501341_c0" function="crossing" crossingEdges="5247010#1 -5247010#1">
        <lane id=":1077501341_c0_0" index="0" allow="pedestrian" speed="1.00" length="8.40" width="4.00" shape="1023.66,962.37 1016.09,966.01"/>
    </edge>
    <edge id=":1077501341_w0" function="walkingarea">
        <lane id=":1077501341_w0_0" index="0" allow="pedestrian" speed="1.00" length="5.79" width="4.00" shape="1013.02,960.33 1010.40,961.80 1009.67,963.41 1010.07,965.37 1014.26,969.11 1016.96,967.81 1015.23,964.21"/>
    </edge>
    <edge id=":1077501341_w1" function="walkingarea">
        <lane id=":1077501341_w1_0" index="0" allow="pedestrian" speed="1.00" length="5.84" width="4.00" shape="1022.80,960.57 1024.53,964.17 1027.23,962.87 1028.03,961.13 1027.51,959.19 1022.94,954.72 1020.33,956.20"/>
    </edge>
    <edge id=":1077501388_w0" function="walkingarea">
        <lane id=":1077501388_w0_0" index="0" allow="pedestrian" speed="1.00" length="5.30" width="2.00" shape="1066.05,955.49 1066.83,953.65 1066.92,952.80 1066.57,950.83 1059.99,952.02 1060.36,953.99 1064.89,954.95 1064.01,954.47 1063.27,954.11 1062.52,953.88 1061.60,953.83"/>
    </edge>
    <edge id=":1077606341_0" function="internal">
        <lane id=":1077606341_0_0" index="0" allow="delivery bicycle pedestrian" speed="5.56" length="5.01" shape="929.95,992.42 927.80,987.90"/>
    </edge>
    <edge id=":1077606341_w0" function="walkingarea">
        <lane id=":1077606341_w0_0" index="0" allow="pedestrian" speed="1.00" length="4.37" width="3.20" shape="928.51,993.11 931.40,991.73 932.16,989.85 931.45,987.98 929.24,987.21 926.35,988.59"/>
    </edge>
    <edge id=":1077990166_0" function="internal">
        <lane id=":1077990166_0_0" index="0" allow="delivery bicycle pedestrian" speed="3.65" length="4.67" shape="498.44,1227.39 497.28,1226.53 496.92,1225.71 497.36,1224.93 498.60,1224.19"/>
    </edge>
    <edge id=":1077990233_0" function="internal">
        <lane id=":1077990233_0_0" index="0" disallow="tram rail_urban rail rail_electric pedestrian ship" speed="5.69" length="6.71" shape="546.86,1210.13 544.62,1210.27 543.01,1210.82 542.04,1211.77 541.69,1213.14"/>
    </edge>
    <edge id=":1077990233_1" function="internal">
        <lane id=":1077990233_1_0" index="0" disallow="tram rail_urban rail rail_electric pedestrian ship" speed="6.70" length="9.57" shape="546.86,1210.13 543.22,1209.85 540.64,1209.22 539.09,1208.23 538.59,1206.89"/>
    </edge>
    <edge id=":1077990233_2" function="internal">
        <lane id=":1077990233_2_0" index="0" disallow="tram rail_urban rail rail_electric pedestrian ship" speed="13.89" length="6.20" shape="541.79,1206.94 541.69,1213.14"/>
    </edge>
    <edge id=":1077990233_3" function="internal">
        <lane id=":1077990233_3_0" index="0" disallow="tram rail_urban rail rail_electric pedestrian ship" speed="3.65" length="2.34" shape="541.79,1206.94 540.97,1208.12 540.17,1208.51"/>
    </edge>
    <edge id=":1077990233_6" function="internal">
        <lane id=":1077990233_6_0" index="0" disallow="tram rail_urban rail rail_electric pedestrian ship" speed="3.65" length="2.34" shape="540.17,1208.51 539.37,1208.10 538.59,1206.89"/>
    </edge>
    <edge id=":1077990233_4" function="internal">
        <lane id=":1077990233_4_0" index="0" disallow="tram rail_urban rail rail_electric pedestrian ship" speed="13.89" length="6.20" shape="538.50,1213.08 538.59,1206.89"/>
    </edge>
    <edge id=":1077990233_5" function="internal">
        <lane id=":1077990233_5_0" index="0" disallow="tram rail_urban rail rail_electric pedestrian ship" speed="3.65" length="2.34" shape="538.50,1213.08 539.31,1211.90 540.12,1211.51"/>
    </edge>
    <edge id=":1077990233_7" function="internal">
        <lane id=":1077990233_7_0" index="0" disallow="tram rail_urban rail rail_electric pedestrian ship" speed="3.65" length="2.34" shape="540.12,1211.51 540.91,1211.92 541.69,1213.14"/>
    </edge>
    <edge id=":1077990233_c0" function="crossing" crossingEdges="424417969#4 -424417969#4">
        <lane id=":1077990233_c0_0" index="0" allow="pedestrian" speed="1.00" length="6.40" width="4.00" shape="536.96,1208.86 543.36,1208.96"/>
    </edge>
    <edge id=":1077990233_w0" function="walkingarea">
        <lane id=":1077990233_w0_0" index="0" allow="pedestrian" speed="1.00" length="4.07" width="4.00" shape="543.29,1213.16 545.29,1213.19 546.82,1211.73 546.90,1208.53 545.39,1206.99 543.39,1206.96 543.33,1210.96"/>
    </edge>
    <edge id=":1077990233_w1" function="walkingarea">
        <lane id=":1077990233_w1_0" index="0" allow="pedestrian" speed="1.00" length="4.25" width="4.00" shape="536.93,1210.86 536.99,1206.86 534.99,1206.83 534.90,1213.03 536.90,1213.06"/>
    </edge>
    <edge id=":1077990399_0" function="internal">
        <lane id=":1077990399_0_0" index="0" allow="bicycle" speed="13.89" length="5.00" width="1.00" shape="707.70,1063.35 702.70,1063.40"/>
    </edge>
    <edge id=":1077990399_1" function="internal">
        <lane id=":1077990399_1_0" index="0" allow="delivery bicycle pedestrian" speed="3.21" length="0.90" shape="707.70,1063.35 706.95,1062.86"/>
    </edge>
    <edge id=":1077990399_4" function="internal">
        <lane id=":1077990399_4_0" index="0" allow="delivery bicycle pedestrian" speed="3.21" length="3.77" shape="706.95,1062.86 706.50,1062.57 706.09,1061.77 706.48,1060.97 707.67,1060.15"/>
    </edge>
    <edge id=":1077990399_2" function="internal">
        <lane id=":1077990399_2_0" index="0" allow="delivery bicycle pedestrian" speed="13.89" length="5.00" shape="702.68,1061.30 707.68,1061.25"/>
    </edge>
    <edge id=":1077990399_3" function="internal">
        <lane id=":1077990399_3_0" index="0" allow="bicycle" speed="2.68" length="0.73" width="1.00" shape="702.69,1062.40 703.07,1062.65 703.20,1062.90"/>
    </edge>
    <edge id=":1077990399_5" function="internal">
        <lane id=":1077990399_5_0" index="0" allow="bicycle" speed="2.68" length="0.73" width="1.00" shape="703.20,1062.90 703.08,1063.15 702.70,1063.40"/>
    </edge>
    <edge id=":1077990399_c0" function="crossing" crossingEdges="-159396225#2">
        <lane id=":1077990399_c0_0" index="0" allow="pedestrian" speed="1.00" length="1.00" width="4.00" shape="705.70,1062.87 705.71,1063.87"/>
    </edge>
    <edge id=":1077990399_w0" function="walkingarea">
        <lane id=":1077990399_w0_0" index="0" allow="pedestrian" speed="1.00" length="1.59" width="4.00" shape="704.21,1065.39 706.21,1065.39 707.71,1063.85 703.71,1063.89"/>
    </edge>
    <edge id=":1077990399_w1" function="walkingarea">
        <lane id=":1077990399_w1_0" index="0" allow="pedestrian" speed="1.00" length="3.65" width="4.00" shape="703.70,1062.89 707.70,1062.85 707.67,1059.65 702.67,1059.70 702.70,1062.90"/>
    </edge>
    <edge id=":1077990423_0" function="internal">
        <lane id=":1077990423_0_0" index="0" disallow="tram rail_urban rail rail_electric pedestrian ship" speed="5.66" length="6.78" shape="546.59,1229.89 544.33,1229.97 542.71,1230.48 541.72,1231.44 541.38,1232.85"/>
    </edge>
    <edge id=":1077990423_1" function="internal">
        <lane id=":1077990423_1_0" index="0" allow="delivery bicycle pedestrian" speed="5.56" length="13.64" shape="546.59,1229.89 532.97,1229.16"/>
    </edge>
    <edge id=":1077990423_2" function="internal">
        <lane id=":1077990423_2_0" index="0" disallow="tram rail_urban rail rail_electric pedestrian ship" speed="7.54" length="12.10" shape="546.59,1229.89 542.94,1229.28 540.35,1227.93 538.81,1225.84 538.34,1223.00"/>
    </edge>
    <edge id=":1077990423_3" function="internal">
        <lane id=":1077990423_3_0" index="0" allow="delivery bicycle pedestrian" speed="3.65" length="4.67" shape="546.59,1229.89 545.44,1229.02 545.08,1228.20 545.53,1227.43 546.77,1226.70"/>
    </edge>
    <edge id=":1077990423_4" function="internal">
        <lane id=":1077990423_4_0" index="0" allow="delivery bicycle pedestrian" speed="5.94" length="7.12" shape="541.54,1223.05 541.84,1224.53 542.82,1225.63 544.46,1226.36 546.77,1226.70"/>
    </edge>
    <edge id=":1077990423_5" function="internal">
        <lane id=":1077990423_5_0" index="0" disallow="tram rail_urban rail rail_electric pedestrian ship" speed="13.89" length="9.80" shape="541.54,1223.05 541.38,1232.85"/>
    </edge>
    <edge id=":1077990423_6" function="internal">
        <lane id=":1077990423_6_0" index="0" allow="delivery bicycle pedestrian" speed="7.32" length="3.16" shape="541.54,1223.05 540.96,1225.88 540.79,1226.09"/>
    </edge>
    <edge id=":1077990423_7" function="internal">