<?xml version="1.0" encoding="UTF-8"?>
<!-- generated on 2019-01-27 19:18:42.657251 by $Id$ via randomTrips.py
  options: 
-->
<routes xmlns:xsi="http://www.w3.org/2001/XMLSchema-instance" xsi:noNamespaceSchemaLocation="http://sumo.dlr.de/xsd/routes_file.xsd">
    <vType id="truck_truck" vClass="truck">
    </vType>
    <trip id="truck0" depart="0.00" departLane="best" departSpeed="max" from="5246845#0" to="5246282#0" type="truck_truck"/>
    <trip id="truck1" depart="4.51" departLane="best" from="-5246845#1" to="161730983#5" type="truck_truck"/>
    <trip id="truck2" depart="9.03" departLane="best" from="-5246845#10" to="48232853#6" type="truck_truck"/>
    <trip id="truck3" depart="13.54" departLane="best" from="5247714#0" to="-123435765#0" type="truck_truck"/>
    <trip id="truck4" depart="18.05" departLane="best" from="5247219#7" to="5246845#10" type="truck_truck"/>
    <trip id="truck5" depart="22.57" departLane="best" from="5248873#0" to="-5248465#1" type="truck_truck"/>
    <trip id="truck6" depart="27.08" departLane="best" departSpeed="max" from="5248103#0" to="48232853#2" type="truck_truck"/>
    <trip id="truck7" depart="31.60" departLane="best" departSpeed="max" from="-161730983#9" to="-5247219#0" type="truck_truck"/>
    <trip id="truck8" depart="36.11" departLane="best" from="238902094#6" to="-5248605#0" type="truck_truck"/>
    <trip id="truck9" depart="40.62" departLane="best" from="-5248103#2" to="-5246897#1" type="truck_truck"/>
    <trip id="truck10" depart="45.14" departLane="best" departSpeed="max" from="-5246897#7" to="5248804#1" type="truck_truck"/>
    <trip id="truck11" depart="49.65" departLane="best" from="-5244856#1" to="5246845#8" type="truck_truck"/>
    <trip id="truck12" depart="54.16" departLane="best" departSpeed="max" from="-5243462#9" to="-5248804#1" type="truck_truck"/>
    <trip id="truck13" depart="58.68" departLane="best" from="159396197#4" to="5246282#5" type="truck_truck"/>
    <trip id="truck14" depart="63.19" departLane="best" from="5248097#3" to="5247219#9" type="truck_truck"/>
    <trip id="truck15" depart="67.70" departLane="best" departSpeed="max" from="-5246845#15" to="-141913259#7" type="truck_truck"/>
    <trip id="truck16" depart="72.22" departLane="best" from="48232853#4" to="-5248873#3" type="truck_truck"/>
    <trip id="truck17" depart="76.73" departLane="best" from="-5246897#6" to="-5247219#8" type="truck_truck"/>
    <trip id="truck18" depart="81.24" departLane="best" from="161730983#3" to="5248465#2" type="truck_truck"/>
    <trip id="truck19" depart="85.76" departLane="best" departSpeed="max" from="-5248257#8" to="-5247010#0" type="truck_truck"/>
    <trip id="truck20" depart="90.27" departLane="best" from="-424417969#3" to="5243462#3" type="truck_truck"/>
    <trip id="truck21" depart="94.79" departLane="best" departSpeed="max" from="5248890#0" to="5248103#6" type="truck_truck"/>
    <trip id="truck22" depart="99.30" departLane="best" departSpeed="max" from="-5246897#7" to="5243462#9" type="truck_truck"/>
    <trip id="truck23" depart="103.81" departLane="best" from="-424417969#4" to="123435765#1" type="truck_truck"/>
    <trip id="truck24" depart="108.33" departLane="best" from="-5248804#1" to="5248804#7" type="truck_truck"/>
    <trip id="truck25" depart="112.84" departLane="best" from="-5248890#4" to="-5246845#0" type="truck_truck"/>
    <trip id="truck26" depart="117.35" departLane="best" from="-123435765#1" to="-5248257#2" type="truck_truck"/>
    <trip id="truck27" depart="121.87" departLane="best" from="-171479232#1" to="159396212#3" type="truck_truck"/>
    <trip id="truck28" depart="126.38" departLane="best" from="-161730983#5" to="5247219#1" type="truck_truck"/>
    <trip id="truck29" depart="130.89" departLane="best" from="-5248873#1" to="315934747" type="truck_truck"/>
    <trip id="truck30" depart="135.41" departLane="best" from="56323061#1" to="5244856#1" type="truck_truck"/>
    <trip id="truck31" depart="139.92" departLane="best" from="-5248603#2" to="161730983#9" type="truck_truck"/>
    <trip id="truck32" depart="144.43" departLane="best" from="-5248097#1" to="48232853#6" type="truck_truck"/>
    <trip id="truck33" depart="148.95" departLane="best" departSpeed="max" from="-5246845#15" to="-5247010#0" type="truck_truck"/>
    <trip id="truck34" depart="153.46" departLane="best" from="-161730983#6" to="5243462#5" type="truck_truck"/>
    <trip id="truck35" depart="157.98" departLane="best" departSpeed="max" from="-5246845#15" to="5248600#1" type="truck_truck"/>
    <trip id="truck36" depart="162.49" departLane="best" departSpeed="max" from="5248103#0" to="-161730983#6" type="truck_truck"/>
    <trip id="truck37" depart="167.00" departLane="best" departSpeed="max" from="-5246282#5" to="-5244856#0" type="truck_truck"/>
    <trip id="truck38" depart="171.52" departLane="best" departSpeed="max" from="5248605#0" to="424417969#5" type="truck_truck"/>
    <trip id="truck39" depart="176.03" departLane="best" departSpeed="max" from="-5248804#7" to="5247714#1" type="truck_truck"/>
    <trip id="truck40" depart="180.54" departLane="best" from="5247219#8" to="-5246845#14" type="truck_truck"/>
    <trip id="truck41" depart="185.06" departLane="best" departSpeed="max" from="5246603#0" to="5245321#8" type="truck_truck"/>
    <trip id="truck42" depart="189.57" departLane="best" from="5248890#5" to="-424417969#2" type="truck_truck"/>
    <trip id="truck43" depart="194.08" departLane="best" departSpeed="max" from="-5248257#8" to="-5248600#0" type="truck_truck"/>
    <trip id="truck44" depart="198.60" departLane="best" departSpeed="max" from="5248103#0" to="-5247714#1" type="truck_truck"/>
    <trip id="truck45" depart="203.11" departLane="best" departSpeed="max" from="5248890#0" to="5248603#5" type="truck_truck"/>
    <trip id="truck46" depart="207.62" departLane="best" from="5248097#6" to="-5246603#0" type="truck_truck"/>
    <trip id="truck47" depart="212.14" departLane="best" departSpeed="max" from="-5248873#6" to="-5246897#4" type="truck_truck"/>
    <trip id="truck48" depart="216.65" departLane="best" departSpeed="max" from="-5248257#8" to="-159396219#1" type="truck_truck"/>
    <trip id="truck49" depart="221.17" departLane="best" from="-5246897#6" to="5247714#1" type="truck_truck"/>
    <trip id="truck50" depart="225.68" departLane="best" from="5248873#0" to="56323061#4" type="truck_truck"/>
    <trip id="truck51" depart="230.19" departLane="best" departSpeed="max" from="5248890#0" to="48232853#3" type="truck_truck"/>
    <trip id="truck52" depart="234.71" departLane="best" from="141913259#3" to="5246897#7" type="truck_truck"/>
    <trip id="truck53" depart="239.22" departLane="best" from="-159396219#0" to="48232853#5" type="truck_truck"/>
    <trip id="truck54" depart="243.73" departLane="best" from="161731011" to="5245321#8" type="truck_truck"/>
    <trip id="truck55" depart="248.25" departLane="best" departSpeed="max" from="-5246845#15" to="-5243462#2" type="truck_truck"/>
    <trip id="truck56" depart="252.76" departLane="best" from="5248257#2" to="-5247219#8" type="truck_truck"/>
    <trip id="truck57" depart="257.27" departLane="best" departSpeed="max" from="-5248465#2" to="48232853#5" type="truck_truck"/>
    <trip id="truck58" depart="261.79" departLane="best" departSpeed="max" from="123435765#0" to="5248804#0" type="truck_truck"/>
    <trip id="truck59" depart="266.30" departLane="best" from="-5247714#7" to="5246897#7" type="truck_truck"/>
    <trip id="truck60" depart="270.82" departLane="best" from="-5246897#6" to="5248804#0" type="truck_truck"/>
    <trip id="truck61" depart="275.33" departLane="best" from="5247961#0" to="5246845#13" type="truck_truck"/>
    <trip id="truck62" depart="279.84" departLane="best" from="48232853#3" to="-123435765#0" type="truck_truck"/>
    <trip id="truck63" depart="284.36" departLane="best" departSpeed="max" from="-48232853#6" to="-5243462#0" type="truck_truck"/>
    <trip id="truck64" depart="288.87" departLane="best" departSpeed="max" from="-5246897#7" to="49682101#10" type="truck_truck"/>
    <trip id="truck65" depart="293.38" departLane="best" departSpeed="max" from="-5248873#6" to="5248600#0" type="truck_truck"/>
    <trip id="truck66" depart="297.90" departLane="best" from="-123435765#2" to="5247219#8" type="truck_truck"/>
    <trip id="truck67" depart="302.41" departLane="best" departSpeed="max" from="5246845#0" to="315934747" type="truck_truck"/>
    <trip id="truck68" depart="306.92" departLane="best" from="-5248600#3" to="-123435765#1" type="truck_truck"/>
    <trip id="truck69" depart="311.44" departLane="best" departSpeed="max" from="-161730983#9" to="5248257#8" type="truck_truck"/>
    <trip id="truck70" depart="315.95" departLane="best" from="5247961#0" to="48232853#4" type="truck_truck"/>
    <trip id="truck71" depart="320.46" departLane="best" from="-5247714#3" to="5248465#2" type="truck_truck"/>
    <trip id="truck72" depart="324.98" departLane="best" from="5247219#1" to="5248103#6" type="truck_truck"/>
    <trip id="truck73" depart="329.49" departLane="best" departSpeed="max" from="-5248257#8" to="49682101#9" type="truck_truck"/>
    <trip id="truck74" depart="334.01" departLane="best" from="5247714#1" to="5248257#8" type="truck_truck"/>
    <trip id="truck75" depart="338.52" departLane="best" from="-159396197#0" to="5246897#3" type="truck_truck"/>
    <trip id="truck76" depart="343.03" departLane="best" from="5247219#5" to="5248103#8" type="truck_truck"/>
    <trip id="truck77" depart="347.55" departLane="best" departSpeed="max" from="5247010#0" to="-48232853#2" type="truck_truck"/>
    <trip id="truck78" depart="352.06" departLane="best" from="-5246845#11" to="5247961#1" type="truck_truck"/>
    <trip id="truck79" depart="356.57" departLane="best" from="-5248804#5" to="-5248103#2" type="truck_truck"/>
    <trip id="truck80" depart="361.09" departLane="best" from="-141913259#7" to="-5246845#3" type="truck_truck"/>
    <trip id="truck81" depart="365.60" departLane="best" departSpeed="max" from="5248890#0" to="-5248097#4" type="truck_truck"/>
    <trip id="truck82" depart="370.11" departLane="best" from="424417969#0" to="-5248873#5" type="truck_truck"/>
    <trip id="truck83" depart="374.63" departLane="best" departSpeed="max" from="5248890#0" to="-5246845#0" type="truck_truck"/>
    <trip id="truck84" depart="379.14" departLane="best" from="-424417969#2" to="123435765#1" type="truck_truck"/>
    <trip id="truck85" depart="383.65" departLane="best" departSpeed="max" from="5246603#0" to="-5248103#7" type="truck_truck"/>
    <trip id="truck86" depart="388.17" departLane="best" from="-5246897#1" to="5246845#15" type="truck_truck"/>
    <trip id="truck87" depart="392.68" departLane="best" departSpeed="max" from="5246845#0" to="5245321#8" type="truck_truck"/>
    <trip id="truck88" depart="397.20" departLane="best" from="-5248103#1" to="-161730983#5" type="truck_truck"/>
    <trip id="truck89" depart="401.71" departLane="best" departSpeed="max" from="-5248257#8" to="-5248103#0" type="truck_truck"/>
    <trip id="truck90" depart="406.22" departLane="best" from="5248605#1" to="5246282#1" type="truck_truck"/>
    <trip id="truck91" depart="410.74" departLane="best" departSpeed="max" from="-5247219#9" to="315934747" type="truck_truck"/>
    <trip id="truck92" depart="415.25" departLane="best" from="-5248873#0" to="5248465#2" type="truck_truck"/>
    <trip id="truck93" depart="419.76" departLane="best" from="5247714#5" to="5246897#7" type="truck_truck"/>
    <trip id="truck94" depart="424.28" departLane="best" departSpeed="max" from="-5248465#2" to="5243462#4" type="truck_truck"/>
    <trip id="truck95" depart="428.79" departLane="best" from="48232853#4" to="-123435765#0" type="truck_truck"/>
    <trip id="truck96" depart="433.30" departLane="best" from="5246845#13" to="5247219#8" type="truck_truck"/>
    <trip id="truck97" depart="437.82" departLane="best" departSpeed="max" from="123435765#0" to="-159396212#0" type="truck_truck"/>
    <trip id="truck98" depart="442.33" departLane="best" from="5248257#3" to="49682101#5" type="truck_truck"/>
    <trip id="truck99" depart="446.84" departLane="best" departSpeed="max" from="-161730983#9" to="-5248097#8" type="truck_truck"/>
    <trip id="truck100" depart="451.36" departLane="best" departSpeed="max" from="-5246897#7" to="-5248257#0" type="truck_truck"/>
    <trip id="truck101" depart="455.87" departLane="best" from="141913259#2" to="-5245321#1" type="truck_truck"/>
    <trip id="truck102" depart="460.39" departLane="best" departSpeed="max" from="-5246845#15" to="5246603#1" type="truck_truck"/>
    <trip id="truck103" depart="464.90" departLane="best" departSpeed="max" from="-5248257#8" to="238902094#6" type="truck_truck"/>
    <trip id="truck104" depart="469.41" departLane="best" departSpeed="max" from="-5248465#2" to="-5246897#0" type="truck_truck"/>
    <trip id="truck105" depart="473.93" departLane="best" departSpeed="max" from="-5248465#2" to="5248600#0" type="truck_truck"/>
    <trip id="truck106" depart="478.44" departLane="best" from="-5248103#8" to="-123435765#0" type="truck_truck"/>
    <trip id="truck107" depart="482.95" departLane="best" from="141913259#5" to="49682101#10" type="truck_truck"/>
    <trip id="truck108" depart="487.47" departLane="best" from="-5246845#10" to="-5247010#0" type="truck_truck"/>
    <trip id="truck109" depart="491.98" departLane="best" from="-5248603#0" to="-141913259#5" type="truck_truck"/>
    <trip id="truck110" depart="496.49" departLane="best" departSpeed="max" from="-5248257#8" to="-5246603#0" type="truck_truck"/>
    <trip id="truck111" depart="501.01" departLane="best" departSpeed="max" from="-5248804#7" to="-5243462#6" type="truck_truck"/>
    <trip id="truck112" depart="505.52" departLane="best" departSpeed="max" from="238902094#0" to="-141913259#4" type="truck_truck"/>
    <trip id="truck113" depart="510.03" departLane="best" from="-159396197#1" to="5243462#9" type="truck_truck"/>
    <trip id="truck114" depart="514.55" departLane="best" departSpeed="max" from="-48232853#6" to="159396197#1" type="truck_truck"/>
    <trip id="truck115" depart="519.06" departLane="best" departSpeed="max" from="-159396212#3" to="-5248804#1" type="truck_truck"/>
    <trip id="truck116" depart="523.58" departLane="best" departSpeed="max" from="-5246282#5" to="-5248257#4" type="truck_truck"/>
    <trip id="truck117" depart="528.09" departLane="best" from="5246845#14" to="5248097#11" type="truck_truck"/>
    <trip id="truck118" depart="532.60" departLane="best" from="48232853#2" to="5247010#1" type="truck_truck"/>
    <trip id="truck119" depart="537.12" departLane="best" from="-48232853#2" to="5245321#8" type="truck_truck"/>
    <trip id="truck120" depart="541.63" departLane="best" from="159396197#7" to="-5246897#6" type="truck_truck"/>
    <trip id="truck121" depart="546.14" departLane="best" from="-424417969#2" to="-141913259#3" type="truck_truck"/>
    <trip id="truck122" depart="550.66" departLane="best" departSpeed="max" from="-315934747" to="5247219#9" type="truck_truck"/>
    <trip id="truck123" depart="555.17" departLane="best" departSpeed="max" from="-424417969#5" to="5248890#5" type="truck_truck"/>
    <trip id="truck124" depart="559.68" departLane="best" departSpeed="max" from="5247010#0" to="-5248600#5" type="truck_truck"/>
    <trip id="truck125" depart="564.20" departLane="best" from="-5248600#3" to="-5248605#0" type="truck_truck"/>
    <trip id="truck126" depart="568.71" departLane="best" departSpeed="max" from="-315934747" to="5248873#2" type="truck_truck"/>
    <trip id="truck127" depart="573.23" departLane="best" from="238902094#6" to="5248097#11" type="truck_truck"/>
    <trip id="truck128" depart="577.74" departLane="best" departSpeed="max" from="5246845#0" to="5248873#5" type="truck_truck"/>
    <trip id="truck129" depart="582.25" departLane="best" departSpeed="max" from="-5246897#7" to="5247826#0" type="truck_truck"/>
    <trip id="truck130" depart="586.77" departLane="best" from="141913259#1" to="159396212#3" type="truck_truck"/>
    <trip id="truck131" depart="591.28" departLane="best" departSpeed="max" from="-5246897#7" to="5248103#2" type="truck_truck"/>
    <trip id="truck132" depart="595.79" departLane="best" departSpeed="max" from="-5248804#7" to="49682101#3" type="truck_truck"/>
    <trip id="truck133" depart="600.31" departLane="best" from="-5248097#10" to="5248257#7" type="truck_truck"/>
    <trip id="truck134" depart="604.82" departLane="best" departSpeed="max" from="-5248873#6" to="5247219#0" type="truck_truck"/>
    <trip id="truck135" depart="609.33" departLane="best" departSpeed="max" from="-5248873#6" to="5247714#6" type="truck_truck"/>
    <trip id="truck136" depart="613.85" departLane="best" from="-171479232#7" to="-5247010#0" type="truck_truck"/>
    <trip id="truck137" depart="618.36" departLane="best" departSpeed="max" from="-5245321#8" to="-5243462#2" type="truck_truck"/>
    <trip id="truck138" depart="622.87" departLane="best" from="-5245321#6" to="-5246897#5" type="truck_truck"/>
    <trip id="truck139" depart="627.39" departLane="best" from="5248890#1" to="171479232#3" type="truck_truck"/>
    <trip id="truck140" depart="631.90" departLane="best" from="-5247219#2" to="-424417969#3" type="truck_truck"/>
    <trip id="truck141" depart="636.42" departLane="best" departSpeed="max" from="-5245321#8" to="-5247010#0" type="truck_truck"/>
    <trip id="truck142" depart="640.93" departLane="best" departSpeed="max" from="5248890#0" to="315934747" type="truck_truck"/>
    <trip id="truck143" depart="645.44" departLane="best" from="5248103#11" to="159396212#3" type="truck_truck"/>
    <trip id="truck144" depart="649.96" departLane="best" from="5248103#3" to="48232853#0" type="truck_truck"/>
    <trip id="truck145" depart="654.47" departLane="best" departSpeed="max" from="-5248804#7" to="123435765#4" type="truck_truck"/>
    <trip id="truck146" depart="658.98" departLane="best" from="5248605#2" to="159396212#0" type="truck_truck"/>
    <trip id="truck147" depart="663.50" departLane="best" from="-161730983#7" to="5243462#4" type="truck_truck"/>
    <trip id="truck148" depart="668.01" departLane="best" departSpeed="max" from="-159396212#3" to="-5245321#7" type="truck_truck"/>
    <trip id="truck149" depart="672.52" departLane="best" from="159396197#7" to="-5248103#11" type="truck_truck"/>
    <trip id="truck150" depart="677.04" departLane="best" from="5246845#8" to="49682101#10" type="truck_truck"/>
    <trip id="truck151" depart="681.55" departLane="best" departSpeed="max" from="123435765#0" to="141913259#3" type="truck_truck"/>
    <trip id="truck152" depart="686.06" departLane="best" departSpeed="max" from="56323061#0" to="-5248103#2" type="truck_truck"/>
    <trip id="truck153" depart="690.58" departLane="best" departSpeed="max" from="238902094#0" to="49682101#3" type="truck_truck"/>
    <trip id="truck154" depart="695.09" departLane="best" departSpeed="max" from="5246845#0" to="5248804#7" type="truck_truck"/>
    <trip id="truck155" depart="699.61" departLane="best" departSpeed="max" from="-5246282#5" to="-5246897#2" type="truck_truck"/>
    <trip id="truck156" depart="704.12" departLane="best" from="-123435765#2" to="141913259#3" type="truck_truck"/>
    <trip id="truck157" depart="708.63" departLane="best" from="161731011" to="-5248103#0" type="truck_truck"/>
    <trip id="truck158" depart="713.15" departLane="best" from="5245321#2" to="141913259#5" type="truck_truck"/>
    <trip id="truck159" depart="717.66" departLane="best" from="-5248890#1" to="-171479232#0" type="truck_truck"/>
    <trip id="truck160" depart="722.17" departLane="best" departSpeed="max" from="-5247714#9" to="-5247714#1" type="truck_truck"/>
    <trip id="truck161" depart="726.69" departLane="best" from="-171479232#6" to="5248873#3" type="truck_truck"/>
    <trip id="truck162" depart="731.20" departLane="best" from="5247961#1" to="48232853#1" type="truck_truck"/>
    <trip id="truck163" depart="735.71" departLane="best" departSpeed="max" from="-5248804#7" to="5245321#0" type="truck_truck"/>
    <trip id="truck164" depart="740.23" departLane="best" from="5248600#6" to="-5246845#1" type="truck_truck"/>
    <trip id="truck165" depart="744.74" departLane="best" from="161730983#3" to="5243462#7" type="truck_truck"/>
    <trip id="truck166" depart="749.25" departLane="best" departSpeed="max" from="-5248873#6" to="-171479232#6" type="truck_truck"/>
    <trip id="truck167" depart="753.77" departLane="best" departSpeed="max" from="-5248097#11" to="-5248257#7" type="truck_truck"/>
    <trip id="truck168" depart="758.28" departLane="best" from="-5247826#0" to="5246282#5" type="truck_truck"/>
    <trip id="truck169" depart="762.80" departLane="best" from="-5247219#6" to="5248804#6" type="truck_truck"/>
    <trip id="truck170" depart="767.31" departLane="best" departSpeed="max" from="-5248257#8" to="161730983#9" type="truck_truck"/>
    <trip id="truck171" depart="771.82" departLane="best" departSpeed="max" from="-5245321#8" to="-5248603#5" type="truck_truck"/>
    <trip id="truck172" depart="776.34" departLane="best" departSpeed="max" from="-424417969#5" to="5248873#6" type="truck_truck"/>
    <trip id="truck173" depart="780.85" departLane="best" from="171479232#4" to="-5247219#4" type="truck_truck"/>
    <trip id="truck174" depart="785.36" departLane="best" from="-5243462#8" to="315934747" type="truck_truck"/>
    <trip id="truck175" depart="789.88" departLane="best" from="-5248804#5" to="-5243462#1" type="truck_truck"/>
    <trip id="truck176" depart="794.39" departLane="best" departSpeed="max" from="-5246897#7" to="5248097#3" type="truck_truck"/>
    <trip id="truck177" depart="798.90" departLane="best" departSpeed="max" from="-5248465#2" to="5248804#0" type="truck_truck"/>
    <trip id="truck178" depart="803.42" departLane="best" from="-56323061#3" to="5248097#1" type="truck_truck"/>
    <trip id="truck179" depart="807.93" departLane="best" from="161730983#4" to="56323061#4" type="truck_truck"/>
    <trip id="truck180" depart="812.45" departLane="best" from="159396212#1" to="-5247219#0" type="truck_truck"/>
    <trip id="truck181" depart="816.96" departLane="best" from="5247714#1" to="-5248804#5" type="truck_truck"/>
    <trip id="truck182" depart="821.47" departLane="best" from="5248890#3" to="159396219#1" type="truck_truck"/>
    <trip id="truck183" depart="825.99" departLane="best" from="5248103#4" to="123435765#4" type="truck_truck"/>
    <trip id="truck184" depart="830.50" departLane="best" departSpeed="max" from="123435765#0" to="141913259#7" type="truck_truck"/>
    <trip id="truck185" depart="835.01" departLane="best" departSpeed="max" from="5246603#0" to="-5248890#0" type="truck_truck"/>
    <trip id="truck186" depart="839.53" departLane="best" departSpeed="max" from="-5248804#7" to="5248873#6" type="truck_truck"/>
    <trip id="truck187" depart="844.04" departLane="best" from="-5248097#1" to="5246282#5" type="truck_truck"/>
    <trip id="truck188" depart="848.55" departLane="best" from="48232853#1" to="5248103#2" type="truck_truck"/>
    <trip id="truck189" depart="853.07" departLane="best" from="5248103#3" to="-159396197#1" type="truck_truck"/>
    <trip id="truck190" depart="857.58" departLane="best" from="5248603#2" to="56323061#4" type="truck_truck"/>
    <trip id="truck191" depart="862.09" departLane="best" departSpeed="max" from="-315934747" to="5243462#6" type="truck_truck"/>
    <trip id="truck192" depart="866.61" departLane="best" from="5244856#0" to="5248465#2" type="truck_truck"/>
    <trip id="truck193" depart="871.12" departLane="best" departSpeed="max" from="-5247219#9" to="-5248605#2" type="truck_truck"/>
    <trip id="truck194" depart="875.64" departLane="best" from="-5244856#0" to="-171479232#0" type="truck_truck"/>
    <trip id="truck195" depart="880.15" departLane="best" from="-5246845#3" to="5248600#5" type="truck_truck"/>
    <trip id="truck196" depart="884.66" departLane="best" from="-5243462#8" to="123435765#5" type="truck_truck"/>
    <trip id="truck197" depart="889.18" departLane="best" departSpeed="max" from="-5248097#11" to="48232853#6" type="truck_truck"/>
    <trip id="truck198" depart="893.69" departLane="best" from="-5248873#5" to="-5247219#2" type="truck_truck"/>
    <trip id="truck199" depart="898.20" departLane="best" departSpeed="max" from="56323061#0" to="-5248103#0" type="truck_truck"/>
    <trip id="truck200" depart="902.72" departLane="best" departSpeed="max" from="-5246897#7" to="424417969#5" type="truck_truck"/>
    <trip id="truck201" depart="907.23" departLane="best" from="5243462#4" to="5246897#7" type="truck_truck"/>
    <trip id="truck202" depart="911.74" departLane="best" departSpeed="max" from="-159396212#3" to="49682101#10" type="truck_truck"/>
    <trip id="truck203" depart="916.26" departLane="best" from="-5248890#2" to="5248600#0" type="truck_truck"/>
    <trip id="truck204" depart="920.77" departLane="best" from="171479232#3" to="-5248603#0" type="truck_truck"/>
    <trip id="truck205" depart="925.28" departLane="best" from="238902094#2" to="5248465#2" type="truck_truck"/>
    <trip id="truck206" depart="929.80" departLane="best" from="424417969#4" to="-5248103#4" type="truck_truck"/>
    <trip id="truck207" depart="934.31" departLane="best" from="5246603#1" to="-171479232#4" type="truck_truck"/>
    <trip id="truck208" depart="938.83" departLane="best" departSpeed="max" from="-5247219#9" to="5246897#7" type="truck_truck"/>
    <trip id="truck209" depart="943.34" departLane="best" from="141913259#1" to="5248873#6" type="truck_truck"/>
    <trip id="truck210" depart="947.85" departLane="best" from="123435765#3" to="5248600#5" type="truck_truck"/>
    <trip id="truck211" depart="952.37" departLane="best" from="5247219#7" to="5246897#7" type="truck_truck"/>
    <trip id="truck212" depart="956.88" departLane="best" departSpeed="max" from="5246603#0" to="5248890#3" type="truck_truck"/>
    <trip id="truck213" depart="961.39" departLane="best" from="-5248804#2" to="5245321#8" type="truck_truck"/>
    <trip id="truck214" depart="965.91" departLane="best" from="49682101#7" to="48232853#6" type="truck_truck"/>
    <trip id="truck215" depart="970.42" departLane="best" from="-424417969#2" to="-5247219#1" type="truck_truck"/>
    <trip id="truck216" depart="974.93" departLane="best" from="-159396197#0" to="5248257#8" type="truck_truck"/>
    <trip id="truck217" depart="979.45" departLane="best" from="5247714#8" to="5248600#3" type="truck_truck"/>
    <trip id="truck218" depart="983.96" departLane="best" departSpeed="max" from="-48232853#6" to="5248804#7" type="truck_truck"/>
    <trip id="truck219" depart="988.47" departLane="best" departSpeed="max" from="-315934747" to="5248257#8" type="truck_truck"/>
    <trip id="truck220" depart="992.99" departLane="best" from="49682101#6" to="5246897#6" type="truck_truck"/>
    <trip id="truck221" depart="997.50" departLane="best" from="5248804#1" to="-5248890#5" type="truck_truck"/>
    <trip id="truck222" depart="1002.02" departLane="best" departSpeed="max" from="-5248465#2" to="-424417969#2" type="truck_truck"/>
    <trip id="truck223" depart="1006.53" departLane="best" from="-5248103#2" to="123435765#5" type="truck_truck"/>
    <trip id="truck224" depart="1011.04" departLane="best" departSpeed="max" from="-315934747" to="5246282#5" type="truck_truck"/>
    <trip id="truck225" depart="1015.56" departLane="best" departSpeed="max" from="-5245321#8" to="-5243462#3" type="truck_truck"/>
    <trip id="truck226" depart="1020.07" departLane="best" from="5248097#6" to="141913259#6" type="truck_truck"/>
    <trip id="truck227" depart="1024.58" departLane="best" departSpeed="max" from="171479232#0" to="-141913259#1" type="truck_truck"/>
    <trip id="truck228" depart="1029.10" departLane="best" departSpeed="max" from="5247010#0" to="-5247219#7" type="truck_truck"/>
    <trip id="truck229" depart="1033.61" departLane="best" from="-161730983#4" to="5247219#5" type="truck_truck"/>
    <trip id="truck230" depart="1038.12" departLane="best" from="-5243462#2" to="5248465#2" type="truck_truck"/>
    <trip id="truck231" depart="1042.64" departLane="best" from="-123435765#2" to="5248103#5" type="truck_truck"/>
    <trip id="truck232" depart="1047.15" departLane="best" from="-5246845#9" to="-5246845#0" type="truck_truck"/>
    <trip id="truck233" depart="1051.66" departLane="best" from="-5246845#2" to="-5248257#2" type="truck_truck"/>
    <trip id="truck234" depart="1056.18" departLane="best" from="-5245321#0" to="-159396212#1" type="truck_truck"/>
    <trip id="truck235" depart="1060.69" departLane="best" departSpeed="max" from="5246845#0" to="171479232#4" type="truck_truck"/>
    <trip id="truck236" depart="1065.21" departLane="best" departSpeed="max" from="5247010#0" to="5248257#0" type="truck_truck"/>
    <trip id="truck237" depart="1069.72" departLane="best" departSpeed="max" from="123435765#0" to="141913259#7" type="truck_truck"/>
    <trip id="truck238" depart="1074.23" departLane="best" from="5243462#4" to="159396212#3" type="truck_truck"/>
    <trip id="truck239" depart="1078.75" departLane="best" departSpeed="max" from="-161730983#9" to="49682101#2" type="truck_truck"/>
    <trip id="truck240" depart="1083.26" departLane="best" from="-161730983#3" to="-5248097#10" type="truck_truck"/>
    <trip id="truck241" depart="1087.77" departLane="best" from="123435765#2" to="141913259#5" type="truck_truck"/>
    <trip id="truck242" depart="1092.29" departLane="best" from="5245321#2" to="5248103#2" type="truck_truck"/>
    <trip id="truck243" depart="1096.80" departLane="best" from="48232853#1" to="5247219#7" type="truck_truck"/>
    <trip id="truck244" depart="1101.31" departLane="best" from="-5248097#1" to="141913259#5" type="truck_truck"/>
    <trip id="truck245" depart="1105.83" departLane="best" departSpeed="max" from="-5248465#2" to="-171479232#8" type="truck_truck"/>