<?xml version="1.0" encoding="UTF-8"?>

<!-- generated on 01/27/19 19:18:41 by Eclipse SUMO duarouter Version v1_1_0+0008-ffcb6ceee0
<configuration xmlns:xsi="http://www.w3.org/2001/XMLSchema-instance" xsi:noNamespaceSchemaLocation="http://sumo.dlr.de/xsd/duarouterConfiguration.xsd">

    <input>
        <net-file value="C:\Users\sunde\Documents\GitHub\AR-Sandbox-for-Construction-Planning\src\AR_Sumobox\Assets\Generated\Networks\new_network\osm.net.xml"/>
        <route-files value="C:\Users\sunde\Documents\GitHub\AR-Sandbox-for-Construction-Planning\src\AR_Sumobox\Assets\Generated\Networks\new_network\osm.passenger.trips.xml"/>
    </input>

    <output>
        <output-file value="C:\Users\sunde\Documents\GitHub\AR-Sandbox-for-Construction-Planning\src\AR_Sumobox\Assets\Generated\Networks\new_network\osm.passenger.rou.xml"/>
        <alternatives-output value="C:\Users\sunde\Documents\GitHub\AR-Sandbox-for-Construction-Planning\src\AR_Sumobox\Assets\Generated\Networks\new_network\osm.passenger.rou.alt.xml"/>
    </output>

    <time>
        <begin value="0"/>
        <end value="3600.0"/>
    </time>

    <report>
        <no-warnings value="true"/>
        <ignore-errors value="true"/>
        <no-step-log value="true"/>
    </report>

</configuration>
-->

<routes xmlns:xsi="http://www.w3.org/2001/XMLSchema-instance" xsi:noNamespaceSchemaLocation="http://sumo.dlr.de/xsd/routes_file.xsd">
    <vType id="veh_passenger" vClass="passenger"/>
    <vehicle id="veh0" type="veh_passenger" depart="0.00" departLane="best">
        <route edges="238902094#3 5243462#6 5243462#7 5248890#4 5248890#5 141913259#0 -141913259#0"/>
    </vehicle>
    <vehicle id="veh1" type="veh_passenger" depart="3.01" departLane="best">
        <route edges="5248103#4 5248103#5 -5248097#10 -5248097#9 -5248097#8 -5248097#7 -5248097#6 5248603#5 5248603#6 5248600#0 5248600#1 5248600#2 5248600#3 -5246897#0 161730983#5 -161730983#5"/>
    </vehicle>
    <vehicle id="veh2" type="veh_passenger" depart="6.02" departLane="best">
        <route edges="-5248600#2 5248804#2 171479232#7 171479232#8 159396209 161731011 159396212#0 159396212#1 -141913259#3"/>
    </vehicle>
    <vehicle id="veh3" type="veh_passenger" depart="9.03" departLane="best" departSpeed="max">
        <route edges="-5245321#8 5248103#3 5248103#4 5248103#5 -5248097#10 -5248097#9 -5248097#8 -5248097#7 -5248097#6 5248603#5 5248603#6 5248600#0 5248600#1 -5248804#1 -5248804#0 161730983#3"/>
    </vehicle>
    <vehicle id="veh4" type="veh_passenger" depart="12.04" departLane="best">
        <route edges="-159396197#0 5243462#0 5243462#1 5248603#2 5248603#3 5248603#4 5248603#5 5248603#6 5247826#4 159396209 161731011 159396212#0 5246845#10 5246845#11 -5246845#11"/>
    </vehicle>
    <vehicle id="veh5" type="veh_passenger" depart="15.05" departLane="best" departSpeed="max">
        <route edges="-5245321#8 5248103#3 5248103#4 5248103#5 -5248097#10 -5248097#9 5246845#6 5246845#7 -56323061#1 238902094#8 159396202 48232853#0"/>
    </vehicle>
    <vehicle id="veh6" type="veh_passenger" depart="18.05" departLane="best" departSpeed="max">
        <route edges="5247010#0 5247010#1 5247010#2 -123435765#5 -123435765#4 -123435765#3 -123435765#2 -123435765#1 -123435765#0"/>
    </vehicle>
    <vehicle id="veh7" type="veh_passenger" depart="21.06" departLane="best" departSpeed="max">
        <route edges="5247010#0 5247010#1 5247010#2 -123435765#5 5245321#0"/>
    </vehicle>
    <vehicle id="veh8" type="veh_passenger" depart="24.07" departLane="best">
        <route edges="-5247826#1 5247826#1 5247826#2 -5248603#6 -5248603#5 -5248603#4 -5248603#3 -5248603#2 -5248603#1 -5248603#0 5247219#4 49682101#8 49682101#9 -5244856#1"/>
    </vehicle>
    <vehicle id="veh9" type="veh_passenger" depart="27.08" departLane="best">
        <route edges="5247714#8 -5247714#8 -5247714#7 5246845#5 5246845#6 5246845#7 -56323061#1 238902094#8 159396202 48232853#0 48232853#1 48232853#2 48232853#3 48232853#4"/>
    </vehicle>
    <vehicle id="veh10" type="veh_passenger" depart="30.09" departLane="best" departSpeed="max">
        <route edges="5247010#0 5247010#1 5247010#2 159396197#0 159396197#1 5247714#0 5247714#1 5247714#2 5247714#3 5247714#4 5247714#5 5247714#6 5247714#7 5247714#8 5248103#5 5248103#6 5246282#5"/>
    </vehicle>
    <vehicle id="veh11" type="veh_passenger" depart="33.10" departLane="best">
        <route edges="141913259#7 -141913259#7 -141913259#6 -141913259#5 -141913259#4 -141913259#3 5248465#1 -5248103#8 -5248103#7 -5248103#6 -5248103#5 -5248103#4 -5248103#3 -5248103#2 -5248103#1 5248873#6"/>
    </vehicle>
    <vehicle id="veh12" type="veh_passenger" depart="36.11" departLane="best">
        <route edges="-5248103#4 -5243462#8 -5243462#7 -5243462#6 238902094#4"/>
    </vehicle>
    <vehicle id="veh13" type="veh_passenger" depart="39.12" departLane="best">
        <route edges="5247219#6 5246845#2 5246845#3 5246845#4 5246845#5 5246845#6 5246845#7 -56323061#1 238902094#8 159396202 48232853#0 48232853#1 48232853#2 48232853#3 48232853#4 48232853#5 48232853#6"/>
    </vehicle>
    <vehicle id="veh14" type="veh_passenger" depart="42.13" departLane="best">
        <route edges="5248097#0 5248097#1 5248097#3 5248097#4 5248097#5 5248603#5 5248603#6 5248600#0 5248600#1 5248600#2 5248600#3 5248600#4 5248600#5 5248600#6 -5248257#3 -5248257#2 -5248257#1 -5248257#0 424417969#0 424417969#2"/>
    </vehicle>
    <vehicle id="veh15" type="veh_passenger" depart="45.14" departLane="best">
        <route edges="-5246282#3 -5246845#6 -5248097#8 -5248097#7 -5248097#6 -5248097#5"/>
    </vehicle>
    <vehicle id="veh16" type="veh_passenger" depart="48.14" departLane="best">
        <route edges="-161730983#2 -161730983#1 -159396197#7 -159396197#6 -159396197#5 -159396197#4 -159396197#3 -159396197#1 -159396197#0 -5247010#2 -5247010#1 -5247010#0"/>
    </vehicle>
    <vehicle id="veh17" type="veh_passenger" depart="51.15" departLane="best" departSpeed="max">
        <route edges="-161730983#9 5248257#0 5248257#1 5248257#2 5248257#3 -5248600#6 -5248600#5 -5248600#4 -5248600#3 -5248600#2 -5248600#1 -5248600#0 -5247826#2"/>
    </vehicle>
    <vehicle id="veh18" type="veh_passenger" depart="54.16" departLane="best">
        <route edges="238902094#2 -5245321#4 49682101#7 49682101#8 49682101#9 -5244856#1 -5248605#0"/>
    </vehicle>
    <vehicle id="veh19" type="veh_passenger" depart="57.17" departLane="best">
        <route edges="-5248103#1 5248103#1 5248103#2 5248103#3 5248103#4 5248103#5 -5248097#10 -5248097#9 -5246845#5"/>
    </vehicle>
    <vehicle id="veh20" type="veh_passenger" depart="60.18" departLane="best">
        <route edges="-5246845#8 -56323061#1 238902094#8 -161731011 159396207 -5247826#4 -5248603#6 -5248603#5 5248603#5"/>
    </vehicle>
    <vehicle id="veh21" type="veh_passenger" depart="63.19" departLane="best">
        <route edges="238902094#5 238902094#6 238902094#7 238902094#8 159396202 48232853#0 48232853#1 48232853#2 48232853#3 48232853#4 48232853#5 48232853#6"/>
    </vehicle>
    <vehicle id="veh22" type="veh_passenger" depart="66.20" departLane="best" departSpeed="max">
        <route edges="-48232853#6 -48232853#5 5248257#6 5248257#7 -5246845#14 -5246845#13 -5246845#12 -5246845#11 -5246845#10 -5246845#9 -5246845#8 56323061#2 -141913259#1 5246282#4 5246282#5"/>
    </vehicle>
    <vehicle id="veh23" type="veh_passenger" depart="69.21" departLane="best" departSpeed="max">
        <route edges="-48232853#6 -48232853#5 5248257#6 5248257#7 -5246845#14 -5246845#13 -5246845#12 -5248804#4"/>
    </vehicle>
    <vehicle id="veh24" type="veh_passenger" depart="72.22" departLane="best" departSpeed="max">
        <route edges="56323061#0 238902094#8 -161731011 159396207 49682101#0 49682101#1 49682101#2 49682101#3 49682101#4 49682101#5 49682101#6 49682101#7 49682101#8 49682101#9 49682101#10"/>
    </vehicle>
    <vehicle id="veh25" type="veh_passenger" depart="75.23" departLane="best">
        <route edges="159396207 49682101#0 5246282#1 5246282#2 5246282#3 -141913259#0 -5248890#5 -5248890#4 5243462#8"/>
    </vehicle>
    <vehicle id="veh26" type="veh_passenger" depart="78.24" departLane="best">
        <route edges="5247714#6 5246845#5 5246845#6 5246845#7 5246845#8 5246845#9 159396212#1 141913259#4 141913259#5 141913259#6 141913259#7 5246897#6"/>
    </vehicle>
    <vehicle id="veh27" type="veh_passenger" depart="81.24" departLane="best">
        <route edges="-5247714#1 5247714#1 5247714#2 5247714#3 5247714#4 5247714#5 5247714#6 -5247714#6"/>
    </vehicle>
    <vehicle id="veh28" type="veh_passenger" depart="84.25" departLane="best">
        <route edges="-5245321#6 5246845#3 -5243462#6 -5243462#5 -5243462#4 -5243462#3 -5243462#2 5248603#2 5248603#3 5248603#4 5248603#5 5248603#6 5248600#0 5248600#1 -5248804#1 -5248804#0 5248804#0"/>
    </vehicle>
    <vehicle id="veh29" type="veh_passenger" depart="87.26" departLane="best" departSpeed="max">
        <route edges="5248103#0 5248103#1 5248103#2 5248103#3 5248103#4 5248103#5 -5248103#5"/>
    </vehicle>
    <vehicle id="veh30" type="veh_passenger" depart="90.27" departLane="best">
        <route edges="238902094#8 159396212#0 -5246845#9 -5246845#8 56323061#2 -141913259#1 -141913259#0 -5248890#5 -5248890#4 -5248890#3 -5248890#2 -5248890#1 -5248890#0"/>
    </vehicle>
    <vehicle id="veh31" type="veh_passenger" depart="93.28" departLane="best">
        <route edges="5248465#0 -5248465#0 5246845#9 -159396212#0 -161731011 159396207 -5247826#4 -5247826#2 -5247826#1 -5247826#0 -159396197#7 -159396197#6 159396197#6"/>
    </vehicle>
    <vehicle id="veh32" type="veh_passenger" depart="96.29" departLane="best">
        <route edges="-5246845#7 -5246845#6 -5246845#5 -5246845#4 -5246845#3 -5246845#2 -5247219#6 -5247219#5 -5247219#4 -5247219#2 -5247219#1"/>
    </vehicle>
    <vehicle id="veh33" type="veh_passenger" depart="99.30" departLane="best">
        <route edges="161730983#3 161730983#4 5246897#0 5248600#4 5248600#5 5248600#6 5248257#4 5248257#5 5248257#6 5248257#7"/>
    </vehicle>
    <vehicle id="veh34" type="veh_passenger" depart="102.31" departLane="best">
        <route edges="-5248257#7 -5248257#6 -48232853#4 -48232853#3 -5246897#3 -5246897#2 -5246897#1"/>
    </vehicle>
    <vehicle id="veh35" type="veh_passenger" depart="105.32" departLane="best">
        <route edges="56323061#2 -56323061#2 -56323061#1 238902094#8 -161731011 159396207 -171479232#8 -171479232#7 -171479232#6 -171479232#4 -5246897#2 -5246897#1 -5246897#0 161730983#5"/>
    </vehicle>
    <vehicle id="veh36" type="veh_passenger" depart="108.33" departLane="best">
        <route edges="-161730983#6 -161730983#5 -161730983#4 -161730983#3 -161730983#2 -161730983#1 -159396197#7 -159396197#6 -159396197#5"/>
    </vehicle>
    <vehicle id="veh37" type="veh_passenger" depart="111.34" departLane="best">
        <route edges="-171479232#1 171479232#1 171479232#3 171479232#4 171479232#6 171479232#7 171479232#8 49682101#0 49682101#1"/>
    </vehicle>
    <vehicle id="veh38" type="veh_passenger" depart="114.34" departLane="best">
        <route edges="5246845#9 -159396212#0 -161731011 159396207 -5247826#4 -5248603#6 -5248603#5 -5248603#4 -5248603#3 -5248603#2 -5248603#1 -5248603#0 -5248605#2 -5248605#1 -5244856#0 123435765#1"/>
    </vehicle>
    <vehicle id="veh39" type="veh_passenger" depart="117.35" departLane="best" departSpeed="max">
        <route edges="-159396212#3 5248103#10 -5248804#6"/>
    </vehicle>
    <vehicle id="veh40" type="veh_passenger" depart="120.36" departLane="best">
        <route edges="5248873#5 -5248873#5 -5248873#4 5246845#1 -5247219#6 -5247219#5 -5247219#4 5248603#0 5248603#1 5248603#2 5248603#3 5248603#4 -5248097#5 5248097#5"/>
    </vehicle>
    <vehicle id="veh41" type="veh_passenger" depart="123.37" departLane="best">
        <route edges="-123435765#5 123435765#5 5243462#0 5243462#1 5248603#2 5248603#3 5248603#4 5248603#5 5246282#0 5246282#1 5246282#2"/>
    </vehicle>
    <vehicle id="veh42" type="veh_passenger" depart="126.38" departLane="best">
        <route edges="-5246845#8 -5246845#7 -5246845#6 -5246845#5 -5246845#4 -5246845#3 -5246845#2 -5247219#6 -5247219#5 49682101#8 49682101#9 49682101#10"/>
    </vehicle>
    <vehicle id="veh43" type="veh_passenger" depart="129.39" departLane="best">
        <route edges="-171479232#3 171479232#3 171479232#4 171479232#6 171479232#7 171479232#8 49682101#0 5246282#1 5246282#2 5246282#3 141913259#1"/>
    </vehicle>
    <vehicle id="veh44" type="veh_passenger" depart="132.40" departLane="best" departSpeed="max">
        <route edges="-56323061#4 -5248103#7 -5246282#4 -5246282#3 -5246845#6 -5246845#5 -5246845#4 -5243462#6 -5243462#5 -5243462#4 -5243462#3 -5243462#2 -5243462#1 -5243462#0 -5247010#2 5247961#0 5247961#1 -5246603#0"/>
    </vehicle>
    <vehicle id="veh45" type="veh_passenger" depart="135.41" departLane="best">
        <route edges="5248257#6 5248257#7 -5246845#14 5246897#5 5246897#6 -5248103#11 -5248103#10 5248103#10"/>
    </vehicle>
    <vehicle id="veh46" type="veh_passenger" depart="138.42" departLane="best">
        <route edges="171479232#3 171479232#4 171479232#6 171479232#7 171479232#8 49682101#0 5246282#1 5246282#2 5246282#3 -141913259#0 -5248890#5 5247714#8 -5248103#4 -5243462#8"/>
    </vehicle>
    <vehicle id="veh47" type="veh_passenger" depart="141.43" departLane="best" departSpeed="max">
        <route edges="5246845#0 5246845#1 5246845#2 5246845#3 5246845#4 5246845#5 5246845#6 5246845#7 -56323061#1 238902094#8 -161731011 159396207 -171479232#8 171479232#8"/>
    </vehicle>
    <vehicle id="veh48" type="veh_passenger" depart="144.43" departLane="best">
        <route edges="-123435765#1 5244856#0 5248605#1 5248605#2 5248603#0 5248603#1 5248603#2 5248603#3 5248603#4 5248603#5 5248603#6 5248600#0 5248600#1 5248600#2 5248600#3 5248600#4 5248600#5 5248600#6 -5248257#3 -5248257#2 -5248257#1"/>
    </vehicle>
    <vehicle id="veh49" type="veh_passenger" depart="147.44" departLane="best">
        <route edges="-141913259#4 -159396212#1 -159396212#0 -161731011 159396207 -5247826#4 -5248603#6 -5248603#5 -5248603#4 -5248603#3 -5248603#2 -5248603#1 -5248603#0 5248603#0"/>
    </vehicle>
    <vehicle id="veh50" type="veh_passenger" depart="150.45" departLane="best" departSpeed="max">
        <route edges="5248103#0 5248103#1 5248103#2 5248103#3 5248103#4 5248103#5 -5248097#10 -5248097#9 -5248097#8 -5248097#7 -5248097#6 -5248097#5 -5248097#4 -5248097#3 -5248097#1 -5248097#0 159396197#4 159396197#5 159396197#6 159396197#7 5247826#0"/>
    </vehicle>
    <vehicle id="veh51" type="veh_passenger" depart="153.46" departLane="best" departSpeed="max">
        <route edges="-5247219#9 5248103#2 5248103#3 5248103#4 5248103#5 -5248097#10 -5248097#9 5246845#6 5246845#7 -56323061#1 238902094#8 -161731011 -159396209"/>
    </vehicle>
    <vehicle id="veh52" type="veh_passenger" depart="156.47" departLane="best" departSpeed="max">
        <route edges="5248103#0 5248103#1 5248103#2 5248103#3 5248103#4 5248103#5 -5248097#10 -5248097#9 -5248097#8 -5248097#7 -5248097#6 5248603#5 5248603#6 5248600#0 5248600#1 5248804#2"/>
    </vehicle>
    <vehicle id="veh53" type="veh_passenger" depart="159.48" departLane="best">
        <route edges="-161730983#4 -161730983#3 5248804#0 5248804#1 -5248600#1 -5248600#0 5247826#4 159396209 161731011 159396212#0 159396212#1 159396212#2 159396212#3"/>
    </vehicle>
    <vehicle id="veh54" type="veh_passenger" depart="162.49" departLane="best" departSpeed="max">
        <route edges="-159396212#3 -159396212#2 -159396212#1 -5246845#9 -5246845#8 -5246845#7 5246845#7"/>
    </vehicle>
    <vehicle id="veh55" type="veh_passenger" depart="165.50" departLane="best" departSpeed="max">
        <route edges="5246845#0 5246845#1 5246845#2 5246845#3 5246845#4 5246845#5 5246845#6 5246845#7 -56323061#1 238902094#8 159396202 48232853#0 48232853#1 48232853#2 -48232853#2"/>
    </vehicle>
    <vehicle id="veh56" type="veh_passenger" depart="168.51" departLane="best" departSpeed="max">
        <route edges="-5248873#6 -5248873#5 -5248873#4 5246845#1 -5247219#6 238902094#2 238902094#3"/>
    </vehicle>
    <vehicle id="veh57" type="veh_passenger" depart="171.52" departLane="best">
        <route edges="-5246845#7 5246845#7 5246845#8 5246845#9 159396212#1 159396212#2 5248103#10 5248103#11"/>
    </vehicle>
    <vehicle id="veh58" type="veh_passenger" depart="174.53" departLane="best">
        <route edges="-5248600#2 -5248600#1 -5248600#0 -5248603#6 5246282#0 5246282#1 5246282#2 -5246845#6"/>
    </vehicle>
    <vehicle id="veh59" type="veh_passenger" depart="177.53" departLane="best">
        <route edges="159396197#0 159396197#1 5247714#0 5247714#1 5247714#2 5247714#3 5247714#4 5247714#5 5247714#6 5247714#7 5247714#8 5248103#5 5248103#6 5246282#5"/>
    </vehicle>
    <vehicle id="veh60" type="veh_passenger" depart="180.54" departLane="best">
        <route edges="-5245321#0 123435765#5 5243462#0 5243462#1 5243462#2 5243462#3 5243462#4 5243462#5 5243462#6 5243462#7 5243462#8 -5248103#3"/>
    </vehicle>
    <vehicle id="veh61" type="veh_passenger" depart="183.55" departLane="best">
        <route edges="-5248603#5 5248603#5 5248603#6 5248600#0 5248600#1 5248600#2 5248600#3 5248600#4 5248600#5 5248600#6 -5248257#3 -5248257#2 -5248257#1 -5248257#0 161730983#9"/>
    </vehicle>
    <vehicle id="veh62" type="veh_passenger" depart="186.56" departLane="best">
        <route edges="-5247826#0 161730983#1 161730983#2 161730983#3 161730983#4 161730983#5 161730983#6 161730983#7 424417969#0 424417969#2 424417969#3 424417969#4 424417969#5"/>
    </vehicle>
    <vehicle id="veh63" type="veh_passenger" depart="189.57" departLane="best" departSpeed="max">
        <route edges="-5246282#5 -5246282#4 -5246282#3 5246845#7 -56323061#1 238902094#8 -161731011 159396207 -171479232#8 -171479232#7 -171479232#6 -171479232#4 -5246897#2"/>
    </vehicle>
    <vehicle id="veh64" type="veh_passenger" depart="192.58" departLane="best" departSpeed="max">
        <route edges="-159396212#3 -159396212#2 -159396212#1 -159396212#0 -161731011 159396207 49682101#0 49682101#1 49682101#2 49682101#3 49682101#4 49682101#5 49682101#6 49682101#7 49682101#8 49682101#9 49682101#10"/>
    </vehicle>
    <vehicle id="veh65" type="veh_passenger" depart="195.59" departLane="best">
        <route edges="-5246282#4 -5246282#3 5246845#7 5246845#8 5246845#9 5246845#10 5246845#11 5246845#12 5246845#13 5246845#14 5248257#8"/>
    </vehicle>
    <vehicle id="veh66" type="veh_passenger" depart="198.60" departLane="best">
        <route edges="5247961#1 5246603#1 5248873#0 5248605#2 5248603#0 5248603#1 5248603#2 5248603#3 5248603#4 5248603#5 5248603#6 5247826#4 159396209 161731011 159396212#0 159396212#1 159396212#2 159396212#3 -159396212#3"/>
    </vehicle>
    <vehicle id="veh67" type="veh_passenger" depart="201.61" departLane="best" departSpeed="max">
        <route edges="-5245321#8 5248103#3 5248103#4 5248103#5 -5248097#10 -5248097#9 5246845#6 5246845#7 -56323061#1 238902094#8 159396202 48232853#0 48232853#1 48232853#2 48232853#3 -48232853#3"/>
    </vehicle>
    <vehicle id="veh68" type="veh_passenger" depart="204.62" departLane="best">
        <route edges="5248603#4 5248603#5 5248603#6 5247826#4 -171479232#8 -171479232#7 -171479232#6 -171479232#4 -171479232#3 315934747"/>
    </vehicle>
    <vehicle id="veh69" type="veh_passenger" depart="207.62" departLane="best" departSpeed="max">
        <route edges="-5248873#6 -5248873#5 -5248873#4 5246845#1 -5247219#6 -5247219#5 -5247219#4 5248603#0 -5245321#2 -5245321#1 -5245321#0 123435765#5 -5247010#2 -5247010#1 5247010#1"/>
    </vehicle>
    <vehicle id="veh70" type="veh_passenger" depart="210.63" departLane="best" departSpeed="max">
        <route edges="5247010#0 5247010#1 5247010#2 -123435765#5 5245321#0 5245321#1 5245321#2 5245321#3 5245321#4 5245321#5 -5246845#2 -5246845#1 -5246845#0"/>
    </vehicle>
    <vehicle id="veh71" type="veh_passenger" depart="213.64" departLane="best" departSpeed="max">
        <route edges="-161730983#9 5248257#0 5248257#1 5248257#2 5248257#3 -5248600#6 -5248600#5 -5248600#4 -5248600#3 -5248600#2 -5248600#1 -5248600#0 -5248603#6 -5248603#5 -5248603#4 -5248603#3 -5248603#2 -5243462#1 -5243462#0 -123435765#5 123435765#5"/>
    </vehicle>
    <vehicle id="veh72" type="veh_passenger" depart="216.65" departLane="best">
        <route edges="5243462#8 -5243462#8 -5243462#7 -5243462#6 -5243462#5 -5243462#4 -5243462#3 -5243462#2 -5243462#1 5243462#1"/>
    </vehicle>
    <vehicle id="veh73" type="veh_passenger" depart="219.66" departLane="best">
        <route edges="5248890#4 -5247714#7 5246845#5 5246845#6 5246845#7 -56323061#1 238902094#8 -161731011 159396207 -171479232#8 -171479232#7 -171479232#6 -171479232#4 -171479232#3 -171479232#1 -171479232#0"/>
    </vehicle>
    <vehicle id="veh74" type="veh_passenger" depart="222.67" departLane="best" departSpeed="max">
        <route edges="-5248257#8 -5248257#7 -5248257#6 -5248257#5 -5248257#4 -5248600#6 -5248600#5 -5248600#4 -5248600#3 -5248600#2 -5248600#1 -5248600#0"/>
    </vehicle>
    <vehicle id="veh75" type="veh_passenger" depart="225.68" departLane="best">
        <route edges="5248097#0 5248097#1 5248097#3 5248097#4 5248097#5 -5248603#4 -5248603#3 -5248603#2 -5248603#1 -5248603#0 -5247219#2"/>
    </vehicle>
    <vehicle id="veh76" type="veh_passenger" depart="228.69" departLane="best" departSpeed="max">
        <route edges="-5243462#9 -5243462#8 -5243462#7 -5243462#6 -5243462#5 -5243462#4 -5243462#3 -5243462#2 -5243462#1 -5243462#0 159396197#0 159396197#1"/>
    </vehicle>
    <vehicle id="veh77" type="veh_passenger" depart="231.70" departLane="best" departSpeed="max">
        <route edges="-5246845#15 -5248257#7 -5248257#6 -5248257#5 -5248257#4 -5248600#6 -5248600#5 -5248600#4 -5248600#3 5248600#3"/>
    </vehicle>
    <vehicle id="veh78" type="veh_passenger" depart="234.71" departLane="best">
        <route edges="-5248605#2 5248605#2 5248603#0 5248603#1 5248603#2 5248603#3 5248603#4 -5248097#5 5248097#5"/>
    </vehicle>
    <vehicle id="veh79" type="veh_passenger" depart="237.72" departLane="best">
        <route edges="56323061#3 -56323061#3 -56323061#2 -56323061#1 238902094#8 -161731011 159396207 -5247826#4 -5247826#2 -5247826#1 5247826#1"/>
    </vehicle>
    <vehicle id="veh80" type="veh_passenger" depart="240.72" departLane="best">
        <route edges="5248873#4 -5248873#4 5246845#1 -5247219#6 -5247219#5 -5247219#4 5248603#0 5248603#1 5248603#2 5248603#3 5248603#4 5248603#5 5248603#6 5248600#0 5248600#1 5248600#2 5248600#3 5248600#4 5248600#5"/>
    </vehicle>
    <vehicle id="veh81" type="veh_passenger" depart="243.73" departLane="best">
        <route edges="5247826#0 5247826#1 5247826#2 -5248603#6 5246282#0 5246282#1 5246282#2 5246282#3 -141913259#0 -5248890#5 -5248890#4 -5248890#3 -5245321#6"/>
    </vehicle>
    <vehicle id="veh82" type="veh_passenger" depart="246.74" departLane="best" departSpeed="max">
        <route edges="-5248257#8 -5246845#14 -5246845#13 -5246845#12 -5246845#11 -5246845#10 -159396212#0 -161731011 -159396209"/>
    </vehicle>
    <vehicle id="veh83" type="veh_passenger" depart="249.75" departLane="best">
        <route edges="-5246845#7 -5246845#6 -5246845#5 -5246845#4 -5243462#6 -5243462#5 -5243462#4 -5243462#3 -5243462#2 -5243462#1 -5243462#0 -5247010#2 -5247010#1 5247010#1"/>
    </vehicle>
    <vehicle id="veh84" type="veh_passenger" depart="252.76" departLane="best">
        <route edges="-5248804#6 -141913259#5 -141913259#4 -159396212#1 -159396212#0 -161731011 159396207 -5247826#4 -5248603#6 -5248603#5 -5248603#4 -5248603#3 -5248603#2 -5248603#1 -5248603#0 -5248605#2 -5248605#1 -5244856#0 123435765#1"/>
    </vehicle>
    <vehicle id="veh85" type="veh_passenger" depart="255.77" departLane="best">
        <route edges="5248804#4 -5246845#11 -5246845#10 -5246845#9 5248465#0 5248465#1 -5248103#8 56323061#4"/>
    </vehicle>
    <vehicle id="veh86" type="veh_passenger" depart="258.78" departLane="best">
        <route edges="-48232853#4 -48232853#3 5246897#4 -5246845#13 -5246845#12 -5246845#11 -5246845#10 -5246845#9 -5246845#8 56323061#2 -141913259#1 -141913259#0 -5248097#9"/>
    </vehicle>
    <vehicle id="veh87" type="veh_passenger" depart="261.79" departLane="best">
        <route edges="5248873#4 -5248873#4 5246845#1 -5247219#6 -5247219#5 -5247219#4 5248603#0 5248603#1 5248603#2 5248603#3 5248603#4 5248603#5 5248603#6 5248600#0 5248600#1 5248600#2 5248600#3 5248600#4 5248600#5 5248600#6 -5248257#3 -5248257#2 -5248257#1 -5248257#0 424417969#0 424417969#2 424417969#3 424417969#4"/>
    </vehicle>
    <vehicle id="veh88" type="veh_passenger" depart="264.80" departLane="best">
        <route edges="159396197#1 5247714#0 5247714#1 5248603#4 5248603#5 5248603#6 5247826#4 159396209 161731011 159396212#0 5246845#10 5246845#11 5246845#12 5246845#13 5246845#14 5246845#15"/>
    </vehicle>
    <vehicle id="veh89" type="veh_passenger" depart="267.81" departLane="best" departSpeed="max">
        <route edges="-159396212#3 -159396212#2 -159396212#1 -159396212#0 -161731011 159396207 -171479232#8 -171479232#7 -171479232#6 -171479232#4 -171479232#3 -171479232#1 -5248257#4 -5248257#3 -5248257#2 -5248257#1 -5248257#0 424417969#0 424417969#2 424417969#3 424417969#4 424417969#5"/>
    </vehicle>
    <vehicle id="veh90" type="veh_passenger" depart="270.82" departLane="best" departSpeed="max">
        <route edges="123435765#0 5244856#0 5248605#1 5248605#2 5248603#0 5245321#3 5245321#4 5245321#5 5246845#3 5243462#7 5248890#4 5247714#8 5248103#5 5248097#11"/>
    </vehicle>
    <vehicle id="veh91" type="veh_passenger" depart="273.82" departLane="best">
        <route edges="-48232853#5 5248257#6 5248257#7 -5246845#14 5246897#5 5246897#6 -5248103#11 5248804#7"/>
    </vehicle>
    <vehicle id="veh92" type="veh_passenger" depart="276.83" departLane="best">
        <route edges="-161730983#2 -161730983#1 -159396197#7 -159396197#6 -159396197#5 -159396197#4 -159396197#3 -159396197#1 -159396197#0 -123435765#5 -123435765#4 -123435765#3 -123435765#2 -5246603#1"/>
    </vehicle>
    <vehicle id="veh93" type="veh_passenger" depart="279.84" departLane="best">
        <route edges="161730983#7 5248257#0 5248257#1 5248257#2 5248257#3 -5248600#6 -5248600#5 -5248600#4 -5248600#3 -5248600#2 -5248600#1 -5248600#0 -5248603#6 -5248603#5 -5248603#4 -5248603#3 -5248603#2 5243462#2"/>
    </vehicle>
    <vehicle id="veh94" type="veh_passenger" depart="282.85" departLane="best" departSpeed="max">
        <route edges="-5246282#5 -5246282#4 -5246282#3 -5246282#2 -5246282#1 -5246282#0 5248603#6 5248600#0 5248600#1 5248600#2 5248600#3 5248600#4 5248600#5 5248600#6 -5248257#3 -5248257#2 -5248257#1 -5248257#0 424417969#0 424417969#2 424417969#3 424417969#4 -424417969#4"/>
    </vehicle>
    <vehicle id="veh95" type="veh_passenger" depart="285.86" departLane="best">
        <route edges="5248103#2 -5245321#7 -5245321#6 -5246845#2 -5247219#6 -5247219#5 -5247219#4 -5247219#2 -5247219#1 -5247219#0"/>
    </vehicle>
    <vehicle id="veh96" type="veh_passenger" depart="288.87" departLane="best">
        <route edges="161730983#7 5248257#0 5248257#1 5248257#2 5248257#3 5248257#4 5248257#5 48232853#5 48232853#6"/>
    </vehicle>
    <vehicle id="veh97" type="veh_passenger" depart="291.88" departLane="best">
        <route edges="-5245321#2 5245321#2 5245321#3 5245321#4 5245321#5 5245321#6 5245321#7 5245321#8"/>
    </vehicle>
    <vehicle id="veh98" type="veh_passenger" depart="294.89" departLane="best">
        <route edges="-5246603#1 5246603#1 5248873#0 5248873#1 5248873#2 5248873#3 5248873#4 -5248890#0"/>
    </vehicle>
    <vehicle id="veh99" type="veh_passenger" depart="297.90" departLane="best">
        <route edges="48232853#2 5246897#4 -5246845#13 -5246845#12 -5246845#11 -5246845#10 -5246845#9 -5246845#8 56323061#2 -141913259#1 -141913259#0 -5248890#5 5247714#8 -5248103#4 -5248103#3 -5248103#2 -5248103#1 -5248103#0"/>
    </vehicle>
    <vehicle id="veh100" type="veh_passenger" depart="300.91" departLane="best">
        <route edges="-5247714#1 5247714#1 5248603#4 5248603#5 5248603#6 5247826#4 159396209 161731011 159396212#0 5246845#10 5246845#11 5246845#12 5246845#13 5246845#14 5246845#15"/>
    </vehicle>
    <vehicle id="veh101" type="veh_passenger" depart="303.91" departLane="best">
        <route edges="-159396219#0 5247010#2 159396197#0 159396197#1 5247714#0 5247714#1 5247714#2 5247714#3 5247714#4 5247714#5 5247714#6 5246845#5 5246845#6 5246845#7 -5246845#7"/>
    </vehicle>
    <vehicle id="veh102" type="veh_passenger" depart="306.92" departLane="best">
        <route edges="-5246845#7 -5246845#6 -5246845#5 -5246845#4 -5243462#6 -5243462#5 -5243462#4 -5243462#3 -5243462#2 5248603#2"/>
    </vehicle>
    <vehicle id="veh103" type="veh_passenger" depart="309.93" departLane="best" departSpeed="max">
        <route edges="5248103#0 5248103#1 5248103#2 5248103#3 5248103#4 5248103#5 5248103#6"/>
    </vehicle>
    <vehicle id="veh104" type="veh_passenger" depart="312.94" departLane="best">
        <route edges="-5248103#1 -5248873#5 -5248873#4 5246845#1 -5247219#6 -5247219#5 -5247219#4 5248603#0 -5245321#2 -5245321#1 -5245321#0"/>
    </vehicle>
    <vehicle id="veh105" type="veh_passenger" depart="315.95" departLane="best">
        <route edges="5247714#0 5247714#1 -5248603#3 -5248603#2 -5248603#1 5245321#3 5245321#4"/>
    </vehicle>
    <vehicle id="veh106" type="veh_passenger" depart="318.96" departLane="best">
        <route edges="171479232#6 171479232#7 171479232#8 49682101#0 5246282#1 5246282#2 5246282#3 -141913259#0 -5248890#5 5248890#5"/>
    </vehicle>
    <vehicle id="veh107" type="veh_passenger" depart="321.97" departLane="best">
        <route edges="238902094#7 238902094#8 -161731011 159396207 -5247826#4 -5248603#6 -5248603#5 -5248603#4 -5248603#3 -5248603#2 -5248603#1 -5248603#0 -5248605#2 -5248605#1 -5244856#0 -123435765#0"/>
    </vehicle>
    <vehicle id="veh108" type="veh_passenger" depart="324.98" departLane="best">