<?xml version="1.0" encoding="UTF-8"?>
<!-- generated on 2019-01-27 19:18:44.361896 by $Id$
  options: 
-->
<routes xmlns:xsi="http://www.w3.org/2001/XMLSchema-instance" xsi:noNamespaceSchemaLocation="http://sumo.dlr.de/xsd/routes_file.xsd">
    <vType id="ped_pedestrian" vClass="pedestrian"/>
    <person id="ped0" depart="0.00" type="ped_pedestrian">
        <personTrip from="40535390#3" to="-123435765#4" modes="public"/>
    </person>
    <person id="ped1" depart="3.15" type="ped_pedestrian">
        <personTrip from="-5248103#4" to="-5247219#5" modes="public"/>
    </person>
    <person id="ped2" depart="6.30" type="ped_pedestrian">
        <personTrip from="5246603#1" to="48232853#3" modes="public"/>
    </person>
    <person id="ped3" depart="9.46" type="ped_pedestrian">
        <personTrip from="5248804#0" to="-286524721" modes="public"/>
    </person>
    <person id="ped4" depart="12.61" type="ped_pedestrian">
        <personTrip from="141913259#6" to="-141913259#2" modes="public"/>
    </person>
    <person id="ped5" depart="15.76" type="ped_pedestrian">
        <personTrip from="-5247219#1" to="286524716" modes="public"/>
    </person>
    <person id="ped6" depart="18.91" type="ped_pedestrian">
        <personTrip from="-123435765#5" to="-5246845#8" modes="public"/>
    </person>
    <person id="ped7" depart="22.07" type="ped_pedestrian">
        <personTrip from="40535400#3" to="316329871" modes="public"/>
    </person>
    <person id="ped8" depart="25.22" type="ped_pedestrian">
        <personTrip from="-5247219#2" to="316624650#1" modes="public"/>
    </person>
    <person id="ped9" depart="28.37" type="ped_pedestrian">
        <personTrip from="5247961#0" to="-100974463#0" modes="public"/>
    </person>
    <person id="ped10" depart="31.52" type="ped_pedestrian">
        <personTrip from="5247826#1" to="5243462#0" modes="public"/>
    </person>
    <person id="ped11" depart="34.68" type="ped_pedestrian">
        <personTrip from="-5248873#4" to="-5245321#0" modes="public"/>
    </person>
    <person id="ped12" depart="37.83" type="ped_pedestrian">
        <personTrip from="92936968#2" to="-5248873#2" modes="public"/>
    </person>
    <person id="ped13" depart="40.98" type="ped_pedestrian">
        <personTrip from="-315933910" to="-315938881" modes="public"/>
    </person>
    <person id="ped14" depart="44.13" type="ped_pedestrian">
        <personTrip from="5248257#2" to="346414620" modes="public"/>
    </person>
    <person id="ped15" depart="47.29" type="ped_pedestrian">
        <personTrip from="5247826#2" to="5246282#2" modes="public"/>
    </person>
    <person id="ped16" depart="50.44" type="ped_pedestrian">
        <personTrip from="316167410#4" to="93014823#1" modes="public"/>
    </person>
    <person id="ped17" depart="53.59" type="ped_pedestrian">
        <personTrip from="100974458" to="316332292#0" modes="public"/>
    </person>
    <person id="ped18" depart="56.74" type="ped_pedestrian">
        <personTrip from="5248103#1" to="381552243#1" modes="public"/>
    </person>
    <person id="ped19" depart="59.90" type="ped_pedestrian">
        <personTrip from="5248440#3" to="316624648#1" modes="public"/>
    </person>
    <person id="ped20" depart="63.05" type="ped_pedestrian">
        <personTrip from="5243462#5" to="-159396197#6" modes="public"/>
    </person>
    <person id="ped21" depart="66.20" type="ped_pedestrian">
        <personTrip from="-5247219#9" to="-5248257#5" modes="public"/>
    </person>
    <person id="ped22" depart="69.35" type="ped_pedestrian">
        <personTrip from="-171479232#7" to="-5247714#1" modes="public"/>
    </person>
    <person id="ped23" depart="72.50" type="ped_pedestrian">
        <personTrip from="-316336118" to="-5248103#7" modes="public"/>
    </person>
    <person id="ped24" depart="75.66" type="ped_pedestrian">
        <personTrip from="40535390#1" to="-93014821" modes="public"/>
    </person>
    <person id="ped25" depart="78.81" type="ped_pedestrian">
        <personTrip from="-93014833" to="-5246897#6" modes="public"/>
    </person>
    <person id="ped26" depart="81.96" type="ped_pedestrian">
        <personTrip from="-5248103#1" to="68303972#2" modes="public"/>
    </person>
    <person id="ped27" depart="85.11" type="ped_pedestrian">
        <personTrip from="40535400#1" to="346431951" modes="public"/>
    </person>
    <person id="ped28" depart="88.27" type="ped_pedestrian">
        <personTrip from="-5246282#2" to="5246282#2" modes="public"/>
    </person>
    <person id="ped29" depart="91.42" type="ped_pedestrian">
        <personTrip from="-5245321#5" to="100974458" modes="public"/>
    </person>
    <person id="ped30" depart="94.57" type="ped_pedestrian">
        <personTrip from="93014830" to="40535391" modes="public"/>
    </person>
    <person id="ped31" depart="97.72" type="ped_pedestrian">
        <personTrip from="316335138" to="49682101#10" modes="public"/>
    </person>
    <person id="ped32" depart="100.88" type="ped_pedestrian">
        <personTrip from="5248103#9" to="5247219#0" modes="public"/>
    </person>
    <person id="ped33" depart="104.03" type="ped_pedestrian">
        <personTrip from="-5247219#9" to="-141913259#3" modes="public"/>
    </person>
    <person id="ped34" depart="107.18" type="ped_pedestrian">
        <personTrip from="-5248603#4" to="-5248103#1" modes="public"/>
    </person>
    <person id="ped35" depart="110.33" type="ped_pedestrian">
        <personTrip from="-5246897#7" to="89935442#2" modes="public"/>
    </person>
    <person id="ped36" depart="113.49" type="ped_pedestrian">
        <personTrip from="5248600#6" to="-5248603#4" modes="public"/>
    </person>
    <person id="ped37" depart="116.64" type="ped_pedestrian">
        <personTrip from="40535422#2" to="100974471#0" modes="public"/>
    </person>
    <person id="ped38" depart="119.79" type="ped_pedestrian">
        <personTrip from="5248890#1" to="159396225#6" modes="public"/>
    </person>
    <person id="ped39" depart="122.94" type="ped_pedestrian">
        <personTrip from="-5248097#9" to="-5247826#1" modes="public"/>
    </person>
    <person id="ped40" depart="126.10" type="ped_pedestrian">
        <personTrip from="316335992#2" to="-5248097#8" modes="public"/>
    </person>
    <person id="ped41" depart="129.25" type="ped_pedestrian">
        <personTrip from="316624649#0" to="5248804#4" modes="public"/>
    </person>
    <person id="ped42" depart="132.40" type="ped_pedestrian">
        <personTrip from="100974474" to="-5247219#2" modes="public"/>
    </person>
    <person id="ped43" depart="135.55" type="ped_pedestrian">
        <personTrip from="93015031#0" to="302975944" modes="public"/>
    </person>
    <person id="ped44" depart="138.70" type="ped_pedestrian">
        <personTrip from="-315928580" to="-159396197#7" modes="public"/>
    </person>
    <person id="ped45" depart="141.86" type="ped_pedestrian">
        <personTrip from="-341074739" to="394751650" modes="public"/>
    </person>
    <person id="ped46" depart="145.01" type="ped_pedestrian">
        <personTrip from="5247714#2" to="141913259#6" modes="public"/>
    </person>
    <person id="ped47" depart="148.16" type="ped_pedestrian">
        <personTrip from="-161730983#3" to="100974461" modes="public"/>
    </person>
    <person id="ped48" depart="151.31" type="ped_pedestrian">
        <personTrip from="93014834#2" to="315938881" modes="public"/>
    </person>
    <person id="ped49" depart="154.47" type="ped_pedestrian">
        <personTrip from="93014823#0" to="5248440#3" modes="public"/>
    </person>
    <person id="ped50" depart="157.62" type="ped_pedestrian">
        <personTrip from="-100974469" to="5245321#5" modes="public"/>
    </person>
    <person id="ped51" depart="160.77" type="ped_pedestrian">
        <personTrip from="49682101#0" to="316167410#5" modes="public"/>
    </person>
    <person id="ped52" depart="163.92" type="ped_pedestrian">
        <personTrip from="-5248103#1" to="40535391" modes="public"/>
    </person>
    <person id="ped53" depart="167.08" type="ped_pedestrian">
        <personTrip from="-346414619" to="159396202" modes="public"/>
    </person>
    <person id="ped54" depart="170.23" type="ped_pedestrian">
        <personTrip from="159396225#11" to="92369363#1" modes="public"/>
    </person>
    <person id="ped55" depart="173.38" type="ped_pedestrian">
        <personTrip from="5248600#6" to="-5248097#8" modes="public"/>
    </person>
    <person id="ped56" depart="176.53" type="ped_pedestrian">
        <personTrip from="238902094#8" to="-5246603#1" modes="public"/>
    </person>
    <person id="ped57" depart="179.69" type="ped_pedestrian">
        <personTrip from="5248890#0" to="5248600#2" modes="public"/>
    </person>
    <person id="ped58" depart="182.84" type="ped_pedestrian">
        <personTrip from="-5248465#2" to="40535390#3" modes="public"/>
    </person>
    <person id="ped59" depart="185.99" type="ped_pedestrian">
        <personTrip from="346431951" to="-5244856#0" modes="public"/>
    </person>
    <person id="ped60" depart="189.14" type="ped_pedestrian">
        <personTrip from="5246897#1" to="316167410#7" modes="public"/>
    </person>
    <person id="ped61" depart="192.30" type="ped_pedestrian">
        <personTrip from="5247219#2" to="316167410#0" modes="public"/>
    </person>
    <person id="ped62" depart="195.45" type="ped_pedestrian">
        <personTrip from="-100813049" to="-5248804#1" modes="public"/>
    </person>
    <person id="ped63" depart="198.60" type="ped_pedestrian">
        <personTrip from="-123435765#0" to="584802511#0" modes="public"/>
    </person>
    <person id="ped64" depart="201.75" type="ped_pedestrian">
        <personTrip from="5248603#1" to="5248103#11" modes="public"/>
    </person>
    <person id="ped65" depart="204.90" type="ped_pedestrian">
        <personTrip from="-5248600#6" to="-159396219#1" modes="public"/>
    </person>
    <person id="ped66" depart="208.06" type="ped_pedestrian">
        <personTrip from="5248603#0" to="92369356" modes="public"/>
    </person>
    <person id="ped67" depart="211.21" type="ped_pedestrian">
        <personTrip from="-286524716" to="171479232#8" modes="public"/>
    </person>
    <person id="ped68" depart="214.36" type="ped_pedestrian">
        <personTrip from="-161730983#7" to="5246897#0" modes="public"/>
    </person>
    <person id="ped69" depart="217.51" type="ped_pedestrian">
        <personTrip from="5246897#4" to="-424418019" modes="public"/>
    </person>
    <person id="ped70" depart="220.67" type="ped_pedestrian">
        <personTrip from="161731011" to="316329966" modes="public"/>
    </person>
    <person id="ped71" depart="223.82" type="ped_pedestrian">
        <personTrip from="-5248097#9" to="5248600#3" modes="public"/>
    </person>
    <person id="ped72" depart="226.97" type="ped_pedestrian">
        <personTrip from="141913259#6" to="-5246897#7" modes="public"/>
    </person>
    <person id="ped73" depart="230.12" type="ped_pedestrian">
        <personTrip from="316167410#7" to="5246282#2" modes="public"/>
    </person>
    <person id="ped74" depart="233.28" type="ped_pedestrian">
        <personTrip from="-5246897#0" to="-5248603#2" modes="public"/>
    </person>
    <person id="ped75" depart="236.43" type="ped_pedestrian">
        <personTrip from="93014834#1" to="40535400#3" modes="public"/>
    </person>
    <person id="ped76" depart="239.58" type="ped_pedestrian">
        <personTrip from="159396209" to="306878103" modes="public"/>
    </person>
    <person id="ped77" depart="242.73" type="ped_pedestrian">
        <personTrip from="-424417969#0" to="-5247219#6" modes="public"/>
    </person>
    <person id="ped78" depart="245.89" type="ped_pedestrian">
        <personTrip from="-5248873#3" to="316624650#1" modes="public"/>
    </person>
    <person id="ped79" depart="249.04" type="ped_pedestrian">
        <personTrip from="-5247709" to="-5247219#2" modes="public"/>
    </person>
    <person id="ped80" depart="252.19" type="ped_pedestrian">
        <personTrip from="-161730983#9" to="394751651#1" modes="public"/>
    </person>
    <person id="ped81" depart="255.34" type="ped_pedestrian">
        <personTrip from="-5247219#9" to="5248873#2" modes="public"/>
    </person>
    <person id="ped82" depart="258.50" type="ped_pedestrian">
        <personTrip from="5248440#2" to="-161730983#9" modes="public"/>
    </person>
    <person id="ped83" depart="261.65" type="ped_pedestrian">
        <personTrip from="-5247714#5" to="424417969#3" modes="public"/>
    </person>
    <person id="ped84" depart="264.80" type="ped_pedestrian">
        <personTrip from="-5247010#1" to="-48232853#2" modes="public"/>
    </person>
    <person id="ped85" depart="267.95" type="ped_pedestrian">
        <personTrip from="68303972#1" to="316336145" modes="public"/>
    </person>
    <person id="ped86" depart="271.10" type="ped_pedestrian">
        <personTrip from="161730983#7" to="5247219#7" modes="public"/>
    </person>
    <person id="ped87" depart="274.26" type="ped_pedestrian">
        <personTrip from="5247826#4" to="-5246845#2" modes="public"/>
    </person>
    <person id="ped88" depart="277.41" type="ped_pedestrian">
        <personTrip from="-315938881" to="159396197#5" modes="public"/>
    </person>
    <person id="ped89" depart="280.56" type="ped_pedestrian">
        <personTrip from="141913259#7" to="161730983#3" modes="public"/>
    </person>
    <person id="ped90" depart="283.71" type="ped_pedestrian">
        <personTrip from="5246282#2" to="48232853#1" modes="public"/>
    </person>
    <person id="ped91" depart="286.87" type="ped_pedestrian">
        <personTrip from="93014827#2" to="-316333792#0" modes="public"/>
    </person>
    <person id="ped92" depart="290.02" type="ped_pedestrian">
        <personTrip from="123435724#2" to="-5248873#3" modes="public"/>
    </person>
    <person id="ped93" depart="293.17" type="ped_pedestrian">
        <personTrip from="5248440#3" to="-5247826#4" modes="public"/>
    </person>
    <person id="ped94" depart="296.32" type="ped_pedestrian">
        <personTrip from="-5246845#2" to="159396225#0" modes="public"/>
    </person>
    <person id="ped95" depart="299.48" type="ped_pedestrian">
        <personTrip from="141913259#6" to="-5248103#7" modes="public"/>
    </person>
    <person id="ped96" depart="302.63" type="ped_pedestrian">
        <personTrip from="-5247826#4" to="56323061#1" modes="public"/>
    </person>
    <person id="ped97" depart="305.78" type="ped_pedestrian">
        <personTrip from="159396212#3" to="5248440#3" modes="public"/>
    </person>
    <person id="ped98" depart="308.93" type="ped_pedestrian">
        <personTrip from="316329976" to="-159396212#0" modes="public"/>
    </person>
    <person id="ped99" depart="312.09" type="ped_pedestrian">
        <personTrip from="93015031#1" to="5248103#4" modes="public"/>
    </person>
    <person id="ped100" depart="315.24" type="ped_pedestrian">
        <personTrip from="93014821" to="56323061#3" modes="public"/>
    </person>
    <person id="ped101" depart="318.39" type="ped_pedestrian">
        <personTrip from="5248257#3" to="-5245321#8" modes="public"/>
    </person>
    <person id="ped102" depart="321.54" type="ped_pedestrian">
        <personTrip from="171479232#8" to="-5247010#1" modes="public"/>
    </person>
    <person id="ped103" depart="324.70" type="ped_pedestrian">
        <personTrip from="123435724#1" to="-159396219#1" modes="public"/>
    </person>
    <person id="ped104" depart="327.85" type="ped_pedestrian">
        <personTrip from="100974458" to="93014829#0" modes="public"/>
    </person>
    <person id="ped105" depart="331.00" type="ped_pedestrian">
        <personTrip from="-5248097#9" to="5247219#7" modes="public"/>
    </person>
    <person id="ped106" depart="334.15" type="ped_pedestrian">
        <personTrip from="159396225#2" to="141913259#6" modes="public"/>
    </person>
    <person id="ped107" depart="337.30" type="ped_pedestrian">
        <personTrip from="92936968#2" to="93014834#1" modes="public"/>
    </person>
    <person id="ped108" depart="340.46" type="ped_pedestrian">
        <personTrip from="316333792#0" to="5245321#3" modes="public"/>
    </person>
    <person id="ped109" depart="343.61" type="ped_pedestrian">
        <personTrip from="-5244856#1" to="-5248465#1" modes="public"/>
    </person>
    <person id="ped110" depart="346.76" type="ped_pedestrian">
        <personTrip from="93014821" to="316624648#2" modes="public"/>
    </person>
    <person id="ped111" depart="349.91" type="ped_pedestrian">
        <personTrip from="316167435" to="5246845#15" modes="public"/>
    </person>
    <person id="ped112" depart="353.07" type="ped_pedestrian">
        <personTrip from="-159396219#0" to="316624649#0" modes="public"/>
    </person>
    <person id="ped113" depart="356.22" type="ped_pedestrian">
        <personTrip from="286524698" to="5248257#6" modes="public"/>
    </person>
    <person id="ped114" depart="359.37" type="ped_pedestrian">
        <personTrip from="-5245321#1" to="92936986#0" modes="public"/>
    </person>
    <person id="ped115" depart="362.52" type="ped_pedestrian">
        <personTrip from="-171479232#7" to="-5246845#13" modes="public"/>
    </person>
    <person id="ped116" depart="365.68" type="ped_pedestrian">
        <personTrip from="316624653#1" to="48232853#2" modes="public"/>
    </person>
    <person id="ped117" depart="368.83" type="ped_pedestrian">
        <personTrip from="-5247714#3" to="-394751652#1" modes="public"/>
    </person>
    <person id="ped118" depart="371.98" type="ped_pedestrian">
        <personTrip from="5248605#2" to="-5247826#1" modes="public"/>
    </person>
    <person id="ped119" depart="375.13" type="ped_pedestrian">
        <personTrip from="316624653#0" to="381552635#0" modes="public"/>
    </person>
    <person id="ped120" depart="378.29" type="ped_pedestrian">
        <personTrip from="141913259#4" to="316624648#5" modes="public"/>
    </person>
    <person id="ped121" depart="381.44" type="ped_pedestrian">
        <personTrip from="315928580" to="68303972#1" modes="public"/>
    </person>
    <person id="ped122" depart="384.59" type="ped_pedestrian">
        <personTrip from="-5246897#2" to="5245321#1" modes="public"/>
    </person>
    <person id="ped123" depart="387.74" type="ped_pedestrian">
        <personTrip from="-5247714#5" to="100974471#0" modes="public"/>
    </person>
    <person id="ped124" depart="390.90" type="ped_pedestrian">
        <personTrip from="424417969#5" to="-5248600#0" modes="public"/>
    </person>
    <person id="ped125" depart="394.05" type="ped_pedestrian">
        <personTrip from="-5248603#5" to="5246845#4" modes="public"/>
    </person>
    <person id="ped126" depart="397.20" type="ped_pedestrian">
        <personTrip from="-161731011" to="159396225#6" modes="public"/>
    </person>
    <person id="ped127" depart="400.35" type="ped_pedestrian">
        <personTrip from="93015031#0" to="93014834#2" modes="public"/>
    </person>
    <person id="ped128" depart="403.50" type="ped_pedestrian">
        <personTrip from="-171479232#0" to="-5247010#0" modes="public"/>
    </person>
    <person id="ped129" depart="406.66" type="ped_pedestrian">
        <personTrip from="-5248097#9" to="68303972#0" modes="public"/>
    </person>
    <person id="ped130" depart="409.81" type="ped_pedestrian">
        <personTrip from="5248603#2" to="5248603#1" modes="public"/>
    </person>
    <person id="ped131" depart="412.96" type="ped_pedestrian">
        <personTrip from="-93014831" to="-5245321#1" modes="public"/>
    </person>
    <person id="ped132" depart="416.11" type="ped_pedestrian">
        <personTrip from="5248103#2" to="5243462#4" modes="public"/>
    </person>
    <person id="ped133" depart="419.27" type="ped_pedestrian">
        <personTrip from="346431954#0" to="93014829#1" modes="public"/>
    </person>
    <person id="ped134" depart="422.42" type="ped_pedestrian">
        <personTrip from="40535422#1" to="-100974463#1" modes="public"/>
    </person>
    <person id="ped135" depart="425.57" type="ped_pedestrian">
        <personTrip from="5248097#3" to="-5248600#0" modes="public"/>
    </person>
    <person id="ped136" depart="428.72" type="ped_pedestrian">
        <personTrip from="422888868#0" to="89935441#1" modes="public"/>
    </person>
    <person id="ped137" depart="431.88" type="ped_pedestrian">
        <personTrip from="-48232853#4" to="-394751651#0" modes="public"/>
    </person>
    <person id="ped138" depart="435.03" type="ped_pedestrian">
        <personTrip from="-316624651" to="316332292#1" modes="public"/>
    </person>
    <person id="ped139" depart="438.18" type="ped_pedestrian">
        <personTrip from="-5248103#3" to="346425294" modes="public"/>
    </person>
    <person id="ped140" depart="441.33" type="ped_pedestrian">
        <personTrip from="5245321#2" to="-5246897#1" modes="public"/>
    </person>
    <person id="ped141" depart="444.49" type="ped_pedestrian">
        <personTrip from="40535390#0" to="-5248097#9" modes="public"/>
    </person>
    <person id="ped142" depart="447.64" type="ped_pedestrian">
        <personTrip from="229120305" to="5248873#2" modes="public"/>
    </person>
    <person id="ped143" depart="450.79" type="ped_pedestrian">
        <personTrip from="5248257#1" to="-315933910" modes="public"/>
    </person>
    <person id="ped144" depart="453.94" type="ped_pedestrian">
        <personTrip from="141913259#7" to="-5248103#6" modes="public"/>
    </person>
    <person id="ped145" depart="457.10" type="ped_pedestrian">
        <personTrip from="-100974461" to="5247010#0" modes="public"/>
    </person>
    <person id="ped146" depart="460.25" type="ped_pedestrian">
        <personTrip from="40535390#2" to="-5248097#7" modes="public"/>
    </person>
    <person id="ped147" depart="463.40" type="ped_pedestrian">
        <personTrip from="5246845#10" to="316332292#0" modes="public"/>
    </person>
    <person id="ped148" depart="466.55" type="ped_pedestrian">
        <personTrip from="159396197#3" to="-100974465" modes="public"/>
    </person>
    <person id="ped149" depart="469.70" type="ped_pedestrian">
        <personTrip from="-171479232#1" to="5248603#4" modes="public"/>
    </person>
    <person id="ped150" depart="472.86" type="ped_pedestrian">
        <personTrip from="5248873#1" to="316329871" modes="public"/>
    </person>
    <person id="ped151" depart="476.01" type="ped_pedestrian">
        <personTrip from="5248103#3" to="316624648#5" modes="public"/>
    </person>
    <person id="ped152" depart="479.16" type="ped_pedestrian">
        <personTrip from="-5243462#7" to="-424418019" modes="public"/>
    </person>
    <person id="ped153" depart="482.31" type="ped_pedestrian">
        <personTrip from="-5248600#6" to="5248804#5" modes="public"/>
    </person>
    <person id="ped154" depart="485.47" type="ped_pedestrian">
        <personTrip from="5247714#5" to="5248440#3" modes="public"/>
    </person>
    <person id="ped155" depart="488.62" type="ped_pedestrian">
        <personTrip from="5248804#5" to="-5246897#6" modes="public"/>
    </person>
    <person id="ped156" depart="491.77" type="ped_pedestrian">
        <personTrip from="-5247826#4" to="-316471866" modes="public"/>
    </person>
    <person id="ped157" depart="494.92" type="ped_pedestrian">
        <personTrip from="5247219#4" to="5248603#5" modes="public"/>
    </person>
    <person id="ped158" depart="498.08" type="ped_pedestrian">
        <personTrip from="123435765#0" to="381552635#1" modes="public"/>
    </person>
    <person id="ped159" depart="501.23" type="ped_pedestrian">
        <personTrip from="-5244856#1" to="584802511#0" modes="public"/>
    </person>
    <person id="ped160" depart="504.38" type="ped_pedestrian">
        <personTrip from="5248465#1" to="93014823#3" modes="public"/>
    </person>
    <person id="ped161" depart="507.53" type="ped_pedestrian">
        <personTrip from="5247961#1" to="5248603#3" modes="public"/>
    </person>
    <person id="ped162" depart="510.69" type="ped_pedestrian">
        <personTrip from="-123435765#4" to="5246603#1" modes="public"/>
    </person>
    <person id="ped163" depart="513.84" type="ped_pedestrian">
        <personTrip from="-5248804#6" to="584802511#1" modes="public"/>
    </person>
    <person id="ped164" depart="516.99" type="ped_pedestrian">
        <personTrip from="5247714#9" to="5248465#0" modes="public"/>
    </person>
    <person id="ped165" depart="520.14" type="ped_pedestrian">
        <personTrip from="5247961#1" to="-5248103#1" modes="public"/>
    </person>
    <person id="ped166" depart="523.29" type="ped_pedestrian">
        <personTrip from="5247219#9" to="-332073132" modes="public"/>
    </person>
    <person id="ped167" depart="526.45" type="ped_pedestrian">
        <personTrip from="5248600#3" to="5248440#1" modes="public"/>
    </person>
    <person id="ped168" depart="529.60" type="ped_pedestrian">
        <personTrip from="-5247219#5" to="5248097#11" modes="public"/>
    </person>
    <person id="ped169" depart="532.75" type="ped_pedestrian">
        <personTrip from="159396225#7" to="-5248600#4" modes="public"/>
    </person>
    <person id="ped170" depart="535.90" type="ped_pedestrian">
        <personTrip from="5247714#4" to="-5247219#8" modes="public"/>
    </person>
    <person id="ped171" depart="539.06" type="ped_pedestrian">
        <personTrip from="-123435765#3" to="-5246845#4" modes="public"/>
    </person>
    <person id="ped172" depart="542.21" type="ped_pedestrian">
        <personTrip from="-5248804#4" to="5248465#0" modes="public"/>
    </person>
    <person id="ped173" depart="545.36" type="ped_pedestrian">
        <personTrip from="92994210" to="-5248103#7" modes="public"/>
    </person>
    <person id="ped174" depart="548.51" type="ped_pedestrian">
        <personTrip from="40535392#0" to="123435724#0" modes="public"/>
    </person>
    <person id="ped175" depart="551.67" type="ped_pedestrian">
        <personTrip from="93014827#0" to="316167410#4" modes="public"/>
    </person>
    <person id="ped176" depart="554.82" type="ped_pedestrian">
        <personTrip from="89935441#1" to="-394751651#0" modes="public"/>
    </person>
    <person id="ped177" depart="557.97" type="ped_pedestrian">
        <personTrip from="93014822" to="-5246603#1" modes="public"/>
    </person>
    <person id="ped178" depart="561.12" type="ped_pedestrian">
        <personTrip from="92994192#0" to="-5248103#0" modes="public"/>
    </person>
    <person id="ped179" depart="564.28" type="ped_pedestrian">
        <personTrip from="-332073132" to="159396202" modes="public"/>
    </person>
    <person id="ped180" depart="567.43" type="ped_pedestrian">
        <personTrip from="5246282#1" to="-5248603#3" modes="public"/>
    </person>
    <person id="ped181" depart="570.58" type="ped_pedestrian">
        <personTrip from="346431949#0" to="302975946" modes="public"/>
    </person>
    <person id="ped182" depart="573.73" type="ped_pedestrian">
        <personTrip from="100974463#0" to="316624647" modes="public"/>
    </person>
    <person id="ped183" depart="576.89" type="ped_pedestrian">
        <personTrip from="-5248097#11" to="5243462#8" modes="public"/>
    </person>
    <person id="ped184" depart="580.04" type="ped_pedestrian">
        <personTrip from="-100974458" to="56323061#2" modes="public"/>
    </person>
    <person id="ped185" depart="583.19" type="ped_pedestrian">
        <personTrip from="316167410#6" to="5245321#4" modes="public"/>
    </person>
    <person id="ped186" depart="586.34" type="ped_pedestrian">
        <personTrip from="5246845#11" to="424417969#5" modes="public"/>
    </person>
    <person id="ped187" depart="589.49" type="ped_pedestrian">
        <personTrip from="-92994216" to="-161730983#9" modes="public"/>
    </person>
    <person id="ped188" depart="592.65" type="ped_pedestrian">
        <personTrip from="422888868#1" to="-5248804#5" modes="public"/>
    </person>
    <person id="ped189" depart="595.80" type="ped_pedestrian">
        <personTrip from="-5248603#3" to="5248257#3" modes="public"/>
    </person>
    <person id="ped190" depart="598.95" type="ped_pedestrian">
        <personTrip from="5245321#4" to="-5248600#1" modes="public"/>
    </person>
    <person id="ped191" depart="602.10" type="ped_pedestrian">
        <personTrip from="-5248603#0" to="123435765#2" modes="public"/>
    </person>
    <person id="ped192" depart="605.26" type="ped_pedestrian">
        <personTrip from="123435724#2" to="-5248465#0" modes="public"/>
    </person>
    <person id="ped193" depart="608.41" type="ped_pedestrian">
        <personTrip from="-424418019" to="141913259#5" modes="public"/>
    </person>
    <person id="ped194" depart="611.56" type="ped_pedestrian">
        <personTrip from="89935442#0" to="48232853#3" modes="public"/>
    </person>
    <person id="ped195" depart="614.71" type="ped_pedestrian">
        <personTrip from="5248873#0" to="346431959" modes="public"/>
    </person>
    <person id="ped196" depart="617.87" type="ped_pedestrian">
        <personTrip from="-5248600#1" to="316329965" modes="public"/>
    </person>
    <person id="ped197" depart="621.02" type="ped_pedestrian">
        <personTrip from="-100813049" to="-5248257#3" modes="public"/>
    </person>
    <person id="ped198" depart="624.17" type="ped_pedestrian">
        <personTrip from="159396197#4" to="316624648#3" modes="public"/>
    </person>
    <person id="ped199" depart="627.32" type="ped_pedestrian">
        <personTrip from="40535422#1" to="161730983#1" modes="public"/>
    </person>
    <person id="ped200" depart="630.48" type="ped_pedestrian">
        <personTrip from="159396212#2" to="-5247010#1" modes="public"/>
    </person>
    <person id="ped201" depart="633.63" type="ped_pedestrian">