<?xml version="1.0" encoding="UTF-8"?>
<!-- generated on 2019-01-27 19:18:43.201243 by $Id$ via randomTrips.py
  options: 
-->
<routes xmlns:xsi="http://www.w3.org/2001/XMLSchema-instance" xsi:noNamespaceSchemaLocation="http://sumo.dlr.de/xsd/routes_file.xsd">
    <vType id="bus_bus" vClass="bus">
    </vType>
    <trip id="bus0" depart="0.00" departLane="best" departSpeed="max" from="5246845#0" to="5246282#0" type="bus_bus"/>
    <trip id="bus1" depart="9.03" departLane="best" from="-5246845#1" to="161730983#5" type="bus_bus"/>
    <trip id="bus2" depart="18.05" departLane="best" from="-5246845#10" to="48232853#6" type="bus_bus"/>
    <trip id="bus3" depart="27.08" departLane="best" from="5247714#0" to="-123435765#0" type="bus_bus"/>
    <trip id="bus4" depart="36.11" departLane="best" from="5247219#7" to="5246845#10" type="bus_bus"/>
    <trip id="bus5" depart="45.14" departLane="best" from="5248873#0" to="-5248465#1" type="bus_bus"/>
    <trip id="bus6" depart="54.16" departLane="best" departSpeed="max" from="5248103#0" to="48232853#2" type="bus_bus"/>
    <trip id="bus7" depart="63.19" departLane="best" departSpeed="max" from="-161730983#9" to="-5247219#0" type="bus_bus"/>
    <trip id="bus8" depart="72.22" departLane="best" from="238902094#6" to="-5248605#0" type="bus_bus"/>
    <trip id="bus9" depart="81.24" departLane="best" from="-5248103#2" to="-5246897#1" type="bus_bus"/>
    <trip id="bus10" depart="90.27" departLane="best" departSpeed="max" from="-5246897#7" to="5248804#1" type="bus_bus"/>
    <trip id="bus11" depart="99.30" departLane="best" from="-5244856#1" to="5246845#8" type="bus_bus"/>
    <trip id="bus12" depart="108.33" departLane="best" departSpeed="max" from="-5243462#9" to="-5248804#1" type="bus_bus"/>
    <trip id="bus13" depart="117.35" departLane="best" from="159396197#4" to="5246282#5" type="bus_bus"/>
    <trip id="bus14" depart="126.38" departLane="best" from="5248097#3" to="5247219#9" type="bus_bus"/>
    <trip id="bus15" depart="135.41" departLane="best" departSpeed="max" from="-5246845#15" to="-141913259#7" type="bus_bus"/>
    <trip id="bus16" depart="144.43" departLane="best" from="48232853#4" to="-5248873#3" type="bus_bus"/>
    <trip id="bus17" depart="153.46" departLane="best" from="-5246897#6" to="-5247219#8" type="bus_bus"/>
    <trip id="bus18" depart="162.49" departLane="best" from="161730983#3" to="5248465#2" type="bus_bus"/>
    <trip id="bus19" depart="171.52" departLane="best" departSpeed="max" from="-5248257#8" to="-5247010#0" type="bus_bus"/>
    <trip id="bus20" depart="180.54" departLane="best" from="-424417969#3" to="5243462#3" type="bus_bus"/>
    <trip id="bus21" depart="189.57" departLane="best" departSpeed="max" from="5248890#0" to="5248103#6" type="bus_bus"/>
    <trip id="bus22" depart="198.60" departLane="best" departSpeed="max" from="-5246897#7" to="5243462#9" type="bus_bus"/>
    <trip id="bus23" depart="207.62" departLane="best" from="-424417969#4" to="123435765#1" type="bus_bus"/>
    <trip id="bus24" depart="216.65" departLane="best" from="-5248804#1" to="5248804#7" type="bus_bus"/>
    <trip id="bus25" depart="225.68" departLane="best" from="-5248890#4" to="-5246845#0" type="bus_bus"/>
    <trip id="bus26" depart="234.71" departLane="best" from="-123435765#1" to="-5248257#2" type="bus_bus"/>
    <trip id="bus27" depart="243.73" departLane="best" from="-171479232#1" to="159396212#3" type="bus_bus"/>
    <trip id="bus28" depart="252.76" departLane="best" from="-161730983#5" to="5247219#1" type="bus_bus"/>
    <trip id="bus29" depart="261.79" departLane="best" from="-5248873#1" to="315934747" type="bus_bus"/>
    <trip id="bus30" depart="270.82" departLane="best" from="56323061#1" to="5244856#1" type="bus_bus"/>
    <trip id="bus31" depart="279.84" departLane="best" from="-5248603#2" to="161730983#9" type="bus_bus"/>
    <trip id="bus32" depart="288.87" departLane="best" from="-5248097#1" to="48232853#6" type="bus_bus"/>
    <trip id="bus33" depart="297.90" departLane="best" departSpeed="max" from="-5246845#15" to="-5247010#0" type="bus_bus"/>
    <trip id="bus34" depart="306.92" departLane="best" from="-161730983#6" to="5243462#5" type="bus_bus"/>
    <trip id="bus35" depart="315.95" departLane="best" departSpeed="max" from="-5246845#15" to="5248600#1" type="bus_bus"/>
    <trip id="bus36" depart="324.98" departLane="best" departSpeed="max" from="5248103#0" to="-161730983#6" type="bus_bus"/>
    <trip id="bus37" depart="334.01" departLane="best" departSpeed="max" from="-5246282#5" to="-5244856#0" type="bus_bus"/>
    <trip id="bus38" depart="343.03" departLane="best" departSpeed="max" from="5248605#0" to="424417969#5" type="bus_bus"/>
    <trip id="bus39" depart="352.06" departLane="best" departSpeed="max" from="-5248804#7" to="5247714#1" type="bus_bus"/>
    <trip id="bus40" depart="361.09" departLane="best" from="5247219#8" to="-5246845#14" type="bus_bus"/>
    <trip id="bus41" depart="370.11" departLane="best" departSpeed="max" from="5246603#0" to="5245321#8" type="bus_bus"/>
    <trip id="bus42" depart="379.14" departLane="best" from="5248890#5" to="-424417969#2" type="bus_bus"/>
    <trip id="bus43" depart="388.17" departLane="best" departSpeed="max" from="-5248257#8" to="-5248600#0" type="bus_bus"/>
    <trip id="bus44" depart="397.20" departLane="best" departSpeed="max" from="5248103#0" to="-5247714#1" type="bus_bus"/>
    <trip id="bus45" depart="406.22" departLane="best" departSpeed="max" from="5248890#0" to="5248603#5" type="bus_bus"/>
    <trip id="bus46" depart="415.25" departLane="best" from="5248097#6" to="-5246603#0" type="bus_bus"/>
    <trip id="bus47" depart="424.28" departLane="best" departSpeed="max" from="-5248873#6" to="-5246897#4" type="bus_bus"/>
    <trip id="bus48" depart="433.30" departLane="best" departSpeed="max" from="-5248257#8" to="-159396219#1" type="bus_bus"/>
    <trip id="bus49" depart="442.33" departLane="best" from="-5246897#6" to="5247714#1" type="bus_bus"/>
    <trip id="bus50" depart="451.36" departLane="best" from="5248873#0" to="56323061#4" type="bus_bus"/>
    <trip id="bus51" depart="460.39" departLane="best" departSpeed="max" from="5248890#0" to="48232853#3" type="bus_bus"/>
    <trip id="bus52" depart="469.41" departLane="best" from="141913259#3" to="5246897#7" type="bus_bus"/>
    <trip id="bus53" depart="478.44" departLane="best" from="-159396219#0" to="48232853#5" type="bus_bus"/>
    <trip id="bus54" depart="487.47" departLane="best" from="161731011" to="5245321#8" type="bus_bus"/>
    <trip id="bus55" depart="496.49" departLane="best" departSpeed="max" from="-5246845#15" to="-5243462#2" type="bus_bus"/>
    <trip id="bus56" depart="505.52" departLane="best" from="5248257#2" to="-5247219#8" type="bus_bus"/>
    <trip id="bus57" depart="514.55" departLane="best" departSpeed="max" from="-5248465#2" to="48232853#5" type="bus_bus"/>
    <trip id="bus58" depart="523.58" departLane="best" departSpeed="max" from="123435765#0" to="5248804#0" type="bus_bus"/>
    <trip id="bus59" depart="532.60" departLane="best" from="-5247714#7" to="5246897#7" type="bus_bus"/>
    <trip id="bus60" depart="541.63" departLane="best" from="-5246897#6" to="5248804#0" type="bus_bus"/>
    <trip id="bus61" depart="550.66" departLane="best" from="5247961#0" to="5246845#13" type="bus_bus"/>
    <trip id="bus62" depart="559.68" departLane="best" from="48232853#3" to="-123435765#0" type="bus_bus"/>
    <trip id="bus63" depart="568.71" departLane="best" departSpeed="max" from="-48232853#6" to="-5243462#0" type="bus_bus"/>
    <trip id="bus64" depart="577.74" departLane="best" departSpeed="max" from="-5246897#7" to="49682101#10" type="bus_bus"/>
    <trip id="bus65" depart="586.77" departLane="best" departSpeed="max" from="-5248873#6" to="5248600#0" type="bus_bus"/>
    <trip id="bus66" depart="595.79" departLane="best" from="-123435765#2" to="5247219#8" type="bus_bus"/>
    <trip id="bus67" depart="604.82" departLane="best" departSpeed="max" from="5246845#0" to="315934747" type="bus_bus"/>
    <trip id="bus68" depart="613.85" departLane="best" from="-5248600#3" to="-123435765#1" type="bus_bus"/>
    <trip id="bus69" depart="622.87" departLane="best" departSpeed="max" from="-161730983#9" to="5248257#8" type="bus_bus"/>
    <trip id="bus70" depart="631.90" departLane="best" from="5247961#0" to="48232853#4" type="bus_bus"/>
    <trip id="bus71" depart="640.93" departLane="best" from="-5247714#3" to="5248465#2" type="bus_bus"/>
    <trip id="bus72" depart="649.96" departLane="best" from="5247219#1" to="5248103#6" type="bus_bus"/>
    <trip id="bus73" depart="658.98" departLane="best" departSpeed="max" from="-5248257#8" to="49682101#9" type="bus_bus"/>
    <trip id="bus74" depart="668.01" departLane="best" from="5247714#1" to="5248257#8" type="bus_bus"/>
    <trip id="bus75" depart="677.04" departLane="best" from="-159396197#0" to="5246897#3" type="bus_bus"/>
    <trip id="bus76" depart="686.06" departLane="best" from="5247219#5" to="5248103#8" type="bus_bus"/>
    <trip id="bus77" depart="695.09" departLane="best" departSpeed="max" from="5247010#0" to="-48232853#2" type="bus_bus"/>
    <trip id="bus78" depart="704.12" departLane="best" from="-5246845#11" to="5247961#1" type="bus_bus"/>
    <trip id="bus79" depart="713.15" departLane="best" from="-5248804#5" to="-5248103#2" type="bus_bus"/>
    <trip id="bus80" depart="722.17" departLane="best" from="-141913259#7" to="-5246845#3" type="bus_bus"/>
    <trip id="bus81" depart="731.20" departLane="best" departSpeed="max" from="5248890#0" to="-5248097#4" type="bus_bus"/>
    <trip id="bus82" depart="740.23" departLane="best" from="424417969#0" to="-5248873#5" type="bus_bus"/>
    <trip id="bus83" depart="749.25" departLane="best" departSpeed="max" from="5248890#0" to="-5246845#0" type="bus_bus"/>
    <trip id="bus84" depart="758.28" departLane="best" from="-424417969#2" to="123435765#1" type="bus_bus"/>
    <trip id="bus85" depart="767.31" departLane="best" departSpeed="max" from="5246603#0" to="-5248103#7" type="bus_bus"/>
    <trip id="bus86" depart="776.34" departLane="best" from="-5246897#1" to="5246845#15" type="bus_bus"/>
    <trip id="bus87" depart="785.36" departLane="best" departSpeed="max" from="5246845#0" to="5245321#8" type="bus_bus"/>
    <trip id="bus88" depart="794.39" departLane="best" from="-5248103#1" to="-161730983#5" type="bus_bus"/>
    <trip id="bus89" depart="803.42" departLane="best" departSpeed="max" from="-5248257#8" to="-5248103#0" type="bus_bus"/>
    <trip id="bus90" depart="812.45" departLane="best" from="5248605#1" to="5246282#1" type="bus_bus"/>
    <trip id="bus91" depart="821.47" departLane="best" departSpeed="max" from="-5247219#9" to="315934747" type="bus_bus"/>
    <trip id="bus92" depart="830.50" departLane="best" from="-5248873#0" to="5248465#2" type="bus_bus"/>
    <trip id="bus93" depart="839.53" departLane="best" from="5247714#5" to="5246897#7" type="bus_bus"/>
    <trip id="bus94" depart="848.55" departLane="best" departSpeed="max" from="-5248465#2" to="5243462#4" type="bus_bus"/>
    <trip id="bus95" depart="857.58" departLane="best" from="48232853#4" to="-123435765#0" type="bus_bus"/>
    <trip id="bus96" depart="866.61" departLane="best" from="5246845#13" to="5247219#8" type="bus_bus"/>
    <trip id="bus97" depart="875.64" departLane="best" departSpeed="max" from="123435765#0" to="-159396212#0" type="bus_bus"/>
    <trip id="bus98" depart="884.66" departLane="best" from="5248257#3" to="49682101#5" type="bus_bus"/>
    <trip id="bus99" depart="893.69" departLane="best" departSpeed="max" from="-161730983#9" to="-5248097#8" type="bus_bus"/>
    <trip id="bus100" depart="902.72" departLane="best" departSpeed="max" from="-5246897#7" to="-5248257#0" type="bus_bus"/>
    <trip id="bus101" depart="911.74" departLane="best" from="141913259#2" to="-5245321#1" type="bus_bus"/>
    <trip id="bus102" depart="920.77" departLane="best" departSpeed="max" from="-5246845#15" to="5246603#1" type="bus_bus"/>
    <trip id="bus103" depart="929.80" departLane="best" departSpeed="max" from="-5248257#8" to="238902094#6" type="bus_bus"/>
    <trip id="bus104" depart="938.83" departLane="best" departSpeed="max" from="-5248465#2" to="-5246897#0" type="bus_bus"/>
    <trip id="bus105" depart="947.85" departLane="best" departSpeed="max" from="-5248465#2" to="5248600#0" type="bus_bus"/>
    <trip id="bus106" depart="956.88" departLane="best" from="-5248103#8" to="-123435765#0" type="bus_bus"/>
    <trip id="bus107" depart="965.91" departLane="best" from="141913259#5" to="49682101#10" type="bus_bus"/>
    <trip id="bus108" depart="974.93" departLane="best" from="-5246845#10" to="-5247010#0" type="bus_bus"/>
    <trip id="bus109" depart="983.96" departLane="best" from="-5248603#0" to="-141913259#5" type="bus_bus"/>
    <trip id="bus110" depart="992.99" departLane="best" departSpeed="max" from="-5248257#8" to="-5246603#0" type="bus_bus"/>
    <trip id="bus111" depart="1002.02" departLane="best" departSpeed="max" from="-5248804#7" to="-5243462#6" type="bus_bus"/>
    <trip id="bus112" depart="1011.04" departLane="best" departSpeed="max" from="238902094#0" to="-141913259#4" type="bus_bus"/>
    <trip id="bus113" depart="1020.07" departLane="best" from="-159396197#1" to="5243462#9" type="bus_bus"/>
    <trip id="bus114" depart="1029.10" departLane="best" departSpeed="max" from="-48232853#6" to="159396197#1" type="bus_bus"/>
    <trip id="bus115" depart="1038.12" departLane="best" departSpeed="max" from="-159396212#3" to="-5248804#1" type="bus_bus"/>
    <trip id="bus116" depart="1047.15" departLane="best" departSpeed="max" from="-5246282#5" to="-5248257#4" type="bus_bus"/>
    <trip id="bus117" depart="1056.18" departLane="best" from="5246845#14" to="5248097#11" type="bus_bus"/>
    <trip id="bus118" depart="1065.21" departLane="best" from="48232853#2" to="5247010#1" type="bus_bus"/>
    <trip id="bus119" depart="1074.23" departLane="best" from="-48232853#2" to="5245321#8" type="bus_bus"/>
    <trip id="bus120" depart="1083.26" departLane="best" from="159396197#7" to="-5246897#6" type="bus_bus"/>
    <trip id="bus121" depart="1092.29" departLane="best" from="-424417969#2" to="-141913259#3" type="bus_bus"/>
    <trip id="bus122" depart="1101.31" departLane="best" departSpeed="max" from="-315934747" to="5247219#9" type="bus_bus"/>
    <trip id="bus123" depart="1110.34" departLane="best" departSpeed="max" from="-424417969#5" to="5248890#5" type="bus_bus"/>
    <trip id="bus124" depart="1119.37" departLane="best" departSpeed="max" from="5247010#0" to="-5248600#5" type="bus_bus"/>
    <trip id="bus125" depart="1128.40" departLane="best" from="-5248600#3" to="-5248605#0" type="bus_bus"/>
    <trip id="bus126" depart="1137.42" departLane="best" departSpeed="max" from="-315934747" to="5248873#2" type="bus_bus"/>
    <trip id="bus127" depart="1146.45" departLane="best" from="238902094#6" to="5248097#11" type="bus_bus"/>
    <trip id="bus128" depart="1155.48" departLane="best" departSpeed="max" from="5246845#0" to="5248873#5" type="bus_bus"/>
    <trip id="bus129" depart="1164.50" departLane="best" departSpeed="max" from="-5246897#7" to="5247826#0" type="bus_bus"/>
    <trip id="bus130" depart="1173.53" departLane="best" from="141913259#1" to="159396212#3" type="bus_bus"/>
    <trip id="bus131" depart="1182.56" departLane="best" departSpeed="max" from="-5246897#7" to="5248103#2" type="bus_bus"/>
    <trip id="bus132" depart="1191.59" departLane="best" departSpeed="max" from="-5248804#7" to="49682101#3" type="bus_bus"/>
    <trip id="bus133" depart="1200.61" departLane="best" from="-5248097#10" to="5248257#7" type="bus_bus"/>
    <trip id="bus134" depart="1209.64" departLane="best" departSpeed="max" from="-5248873#6" to="5247219#0" type="bus_bus"/>
    <trip id="bus135" depart="1218.67" departLane="best" departSpeed="max" from="-5248873#6" to="5247714#6" type="bus_bus"/>
    <trip id="bus136" depart="1227.69" departLane="best" from="-171479232#7" to="-5247010#0" type="bus_bus"/>
    <trip id="bus137" depart="1236.72" departLane="best" departSpeed="max" from="-5245321#8" to="-5243462#2" type="bus_bus"/>
    <trip id="bus138" depart="1245.75" departLane="best" from="-5245321#6" to="-5246897#5" type="bus_bus"/>
    <trip id="bus139" depart="1254.78" departLane="best" from="5248890#1" to="171479232#3" type="bus_bus"/>
    <trip id="bus140" depart="1263.80" departLane="best" from="-5247219#2" to="-424417969#3" type="bus_bus"/>
    <trip id="bus141" depart="1272.83" departLane="best" departSpeed="max" from="-5245321#8" to="-5247010#0" type="bus_bus"/>
    <trip id="bus142" depart="1281.86" departLane="best" departSpeed="max" from="5248890#0" to="315934747" type="bus_bus"/>
    <trip id="bus143" depart="1290.88" departLane="best" from="5248103#11" to="159396212#3" type="bus_bus"/>
    <trip id="bus144" depart="1299.91" departLane="best" from="5248103#3" to="48232853#0" type="bus_bus"/>
    <trip id="bus145" depart="1308.94" departLane="best" departSpeed="max" from="-5248804#7" to="123435765#4" type="bus_bus"/>
    <trip id="bus146" depart="1317.97" departLane="best" from="5248605#2" to="159396212#0" type="bus_bus"/>
    <trip id="bus147" depart="1326.99" departLane="best" from="-161730983#7" to="5243462#4" type="bus_bus"/>
    <trip id="bus148" depart="1336.02" departLane="best" departSpeed="max" from="-159396212#3" to="-5245321#7" type="bus_bus"/>
    <trip id="bus149" depart="1345.05" departLane="best" from="159396197#7" to="-5248103#11" type="bus_bus"/>
    <trip id="bus150" depart="1354.08" departLane="best" from="5246845#8" to="49682101#10" type="bus_bus"/>
    <trip id="bus151" depart="1363.10" departLane="best" departSpeed="max" from="123435765#0" to="141913259#3" type="bus_bus"/>
    <trip id="bus152" depart="1372.13" departLane="best" departSpeed="max" from="56323061#0" to="-5248103#2" type="bus_bus"/>
    <trip id="bus153" depart="1381.16" departLane="best" departSpeed="max" from="238902094#0" to="49682101#3" type="bus_bus"/>
    <trip id="bus154" depart="1390.18" departLane="best" departSpeed="max" from="5246845#0" to="5248804#7" type="bus_bus"/>
    <trip id="bus155" depart="1399.21" departLane="best" departSpeed="max" from="-5246282#5" to="-5246897#2" type="bus_bus"/>
    <trip id="bus156" depart="1408.24" departLane="best" from="-123435765#2" to="141913259#3" type="bus_bus"/>
    <trip id="bus157" depart="1417.27" departLane="best" from="161731011" to="-5248103#0" type="bus_bus"/>
    <trip id="bus158" depart="1426.29" departLane="best" from="5245321#2" to="141913259#5" type="bus_bus"/>
    <trip id="bus159" depart="1435.32" departLane="best" from="-5248890#1" to="-171479232#0" type="bus_bus"/>
    <trip id="bus160" depart="1444.35" departLane="best" departSpeed="max" from="-5247714#9" to="-5247714#1" type="bus_bus"/>
    <trip id="bus161" depart="1453.37" departLane="best" from="-171479232#6" to="5248873#3" type="bus_bus"/>
    <trip id="bus162" depart="1462.40" departLane="best" from="5247961#1" to="48232853#1" type="bus_bus"/>
    <trip id="bus163" depart="1471.43" departLane="best" departSpeed="max" from="-5248804#7" to="5245321#0" type="bus_bus"/>
    <trip id="bus164" depart="1480.46" departLane="best" from="5248600#6" to="-5246845#1" type="bus_bus"/>
    <trip id="bus165" depart="1489.48" departLane="best" from="161730983#3" to="5243462#7" type="bus_bus"/>
    <trip id="bus166" depart="1498.51" departLane="best" departSpeed="max" from="-5248873#6" to="-171479232#6" type="bus_bus"/>
    <trip id="bus167" depart="1507.54" departLane="best" departSpeed="max" from="-5248097#11" to="-5248257#7" type="bus_bus"/>
    <trip id="bus168" depart="1516.56" departLane="best" from="-5247826#0" to="5246282#5" type="bus_bus"/>
    <trip id="bus169" depart="1525.59" departLane="best" from="-5247219#6" to="5248804#6" type="bus_bus"/>
    <trip id="bus170" depart="1534.62" departLane="best" departSpeed="max" from="-5248257#8" to="161730983#9" type="bus_bus"/>
    <trip id="bus171" depart="1543.65" departLane="best" departSpeed="max" from="-5245321#8" to="-5248603#5" type="bus_bus"/>
    <trip id="bus172" depart="1552.67" departLane="best" departSpeed="max" from="-424417969#5" to="5248873#6" type="bus_bus"/>
    <trip id="bus173" depart="1561.70" departLane="best" from="171479232#4" to="-5247219#4" type="bus_bus"/>
    <trip id="bus174" depart="1570.73" departLane="best" from="-5243462#8" to="315934747" type="bus_bus"/>
    <trip id="bus175" depart="1579.75" departLane="best" from="-5248804#5" to="-5243462#1" type="bus_bus"/>
    <trip id="bus176" depart="1588.78" departLane="best" departSpeed="max" from="-5246897#7" to="5248097#3" type="bus_bus"/>
    <trip id="bus177" depart="1597.81" departLane="best" departSpeed="max" from="-5248465#2" to="5248804#0" type="bus_bus"/>
    <trip id="bus178" depart="1606.84" departLane="best" from="-56323061#3" to="5248097#1" type="bus_bus"/>
    <trip id="bus179" depart="1615.86" departLane="best" from="161730983#4" to="56323061#4" type="bus_bus"/>
    <trip id="bus180" depart="1624.89" departLane="best" from="159396212#1" to="-5247219#0" type="bus_bus"/>
    <trip id="bus181" depart="1633.92" departLane="best" from="5247714#1" to="-5248804#5" type="bus_bus"/>
    <trip id="bus182" depart="1642.94" departLane="best" from="5248890#3" to="159396219#1" type="bus_bus"/>
    <trip id="bus183" depart="1651.97" departLane="best" from="5248103#4" to="123435765#4" type="bus_bus"/>
    <trip id="bus184" depart="1661.00" departLane="best" departSpeed="max" from="123435765#0" to="141913259#7" type="bus_bus"/>
    <trip id="bus185" depart="1670.03" departLane="best" departSpeed="max" from="5246603#0" to="-5248890#0" type="bus_bus"/>
    <trip id="bus186" depart="1679.05" departLane="best" departSpeed="max" from="-5248804#7" to="5248873#6" type="bus_bus"/>
    <trip id="bus187" depart="1688.08" departLane="best" from="-5248097#1" to="5246282#5" type="bus_bus"/>
    <trip id="bus188" depart="1697.11" departLane="best" from="48232853#1" to="5248103#2" type="bus_bus"/>
    <trip id="bus189" depart="1706.13" departLane="best" from="5248103#3" to="-159396197#1" type="bus_bus"/>
    <trip id="bus190" depart="1715.16" departLane="best" from="5248603#2" to="56323061#4" type="bus_bus"/>
    <trip id="bus191" depart="1724.19" departLane="best" departSpeed="max" from="-315934747" to="5243462#6" type="bus_bus"/>
    <trip id="bus192" depart="1733.22" departLane="best" from="5244856#0" to="5248465#2" type="bus_bus"/>
    <trip id="bus193" depart="1742.24" departLane="best" departSpeed="max" from="-5247219#9" to="-5248605#2" type="bus_bus"/>
    <trip id="bus194" depart="1751.27" departLane="best" from="-5244856#0" to="-171479232#0" type="bus_bus"/>
    <trip id="bus195" depart="1760.30" departLane="best" from="-5246845#3" to="5248600#5" type="bus_bus"/>
    <trip id="bus196" depart="1769.32" departLane="best" from="-5243462#8" to="123435765#5" type="bus_bus"/>
    <trip id="bus197" depart="1778.35" departLane="best" departSpeed="max" from="-5248097#11" to="48232853#6" type="bus_bus"/>
    <trip id="bus198" depart="1787.38" departLane="best" from="-5248873#5" to="-5247219#2" type="bus_bus"/>
    <trip id="bus199" depart="1796.41" departLane="best" departSpeed="max" from="56323061#0" to="-5248103#0" type="bus_bus"/>
    <trip id="bus200" depart="1805.43" departLane="best" departSpeed="max" from="-5246897#7" to="424417969#5" type="bus_bus"/>
    <trip id="bus201" depart="1814.46" departLane="best" from="5243462#4" to="5246897#7" type="bus_bus"/>
    <trip id="bus202" depart="1823.49" departLane="best" departSpeed="max" from="-159396212#3" to="49682101#10" type="bus_bus"/>
    <trip id="bus203" depart="1832.51" departLane="best" from="-5248890#2" to="5248600#0" type="bus_bus"/>
    <trip id="bus204" depart="1841.54" departLane="best" from="171479232#3" to="-5248603#0" type="bus_bus"/>
    <trip id="bus205" depart="1850.57" departLane="best" from="238902094#2" to="5248465#2" type="bus_bus"/>
    <trip id="bus206" depart="1859.60" departLane="best" from="424417969#4" to="-5248103#4" type="bus_bus"/>
    <trip id="bus207" depart="1868.62" departLane="best" from="5246603#1" to="-171479232#4" type="bus_bus"/>
    <trip id="bus208" depart="1877.65" departLane="best" departSpeed="max" from="-5247219#9" to="5246897#7" type="bus_bus"/>
    <trip id="bus209" depart="1886.68" departLane="best" from="141913259#1" to="5248873#6" type="bus_bus"/>
    <trip id="bus210" depart="1895.71" departLane="best" from="123435765#3" to="5248600#5" type="bus_bus"/>
    <trip id="bus211" depart="1904.73" departLane="best" from="5247219#7" to="5246897#7" type="bus_bus"/>
    <trip id="bus212" depart="1913.76" departLane="best" departSpeed="max" from="5246603#0" to="5248890#3" type="bus_bus"/>
    <trip id="bus213" depart="1922.79" departLane="best" from="-5248804#2" to="5245321#8" type="bus_bus"/>
    <trip id="bus214" depart="1931.81" departLane="best" from="49682101#7" to="48232853#6" type="bus_bus"/>
    <trip id="bus215" depart="1940.84" departLane="best" from="-424417969#2" to="-5247219#1" type="bus_bus"/>
    <trip id="bus216" depart="1949.87" departLane="best" from="-159396197#0" to="5248257#8" type="bus_bus"/>
    <trip id="bus217" depart="1958.90" departLane="best" from="5247714#8" to="5248600#3" type="bus_bus"/>
    <trip id="bus218" depart="1967.92" departLane="best" departSpeed="max" from="-48232853#6" to="5248804#7" type="bus_bus"/>
    <trip id="bus219" depart="1976.95" departLane="best" departSpeed="max" from="-315934747" to="5248257#8" type="bus_bus"/>
    <trip id="bus220" depart="1985.98" departLane="best" from="49682101#6" to="5246897#6" type="bus_bus"/>
    <trip id="bus221" depart="1995.00" departLane="best" from="5248804#1" to="-5248890#5" type="bus_bus"/>
    <trip id="bus222" depart="2004.03" departLane="best" departSpeed="max" from="-5248465#2" to="-424417969#2" type="bus_bus"/>
    <trip id="bus223" depart="2013.06" departLane="best" from="-5248103#2" to="123435765#5" type="bus_bus"/>
    <trip id="bus224" depart="2022.09" departLane="best" departSpeed="max" from="-315934747" to="5246282#5" type="bus_bus"/>
    <trip id="bus225" depart="2031.11" departLane="best" departSpeed="max" from="-5245321#8" to="-5243462#3" type="bus_bus"/>
    <trip id="bus226" depart="2040.14" departLane="best" from="5248097#6" to="141913259#6" type="bus_bus"/>
    <trip id="bus227" depart="2049.17" departLane="best" departSpeed="max" from="171479232#0" to="-141913259#1" type="bus_bus"/>
    <trip id="bus228" depart="2058.19" departLane="best" departSpeed="max" from="5247010#0" to="-5247219#7" type="bus_bus"/>
    <trip id="bus229" depart="2067.22" departLane="best" from="-161730983#4" to="5247219#5" type="bus_bus"/>
    <trip id="bus230" depart="2076.25" departLane="best" from="-5243462#2" to="5248465#2" type="bus_bus"/>
    <trip id="bus231" depart="2085.28" departLane="best" from="-123435765#2" to="5248103#5" type="bus_bus"/>
    <trip id="bus232" depart="2094.30" departLane="best" from="-5246845#9" to="-5246845#0" type="bus_bus"/>
    <trip id="bus233" depart="2103.33" departLane="best" from="-5246845#2" to="-5248257#2" type="bus_bus"/>
    <trip id="bus234" depart="2112.36" departLane="best" from="-5245321#0" to="-159396212#1" type="bus_bus"/>
    <trip id="bus235" depart="2121.38" departLane="best" departSpeed="max" from="5246845#0" to="171479232#4" type="bus_bus"/>
    <trip id="bus236" depart="2130.41" departLane="best" departSpeed="max" from="5247010#0" to="5248257#0" type="bus_bus"/>
    <trip id="bus237" depart="2139.44" departLane="best" departSpeed="max" from="123435765#0" to="141913259#7" type="bus_bus"/>
    <trip id="bus238" depart="2148.47" departLane="best" from="5243462#4" to="159396212#3" type="bus_bus"/>
    <trip id="bus239" depart="2157.49" departLane="best" departSpeed="max" from="-161730983#9" to="49682101#2" type="bus_bus"/>
    <trip id="bus240" depart="2166.52" departLane="best" from="-161730983#3" to="-5248097#10" type="bus_bus"/>
    <trip id="bus241" depart="2175.55" departLane="best" from="123435765#2" to="141913259#5" type="bus_bus"/>
    <trip id="bus242" depart="2184.57" departLane="best" from="5245321#2" to="5248103#2" type="bus_bus"/>
    <trip id="bus243" depart="2193.60" departLane="best" from="48232853#1" to="5247219#7" type="bus_bus"/>
    <trip id="bus244" depart="2202.63" departLane="best" from="-5248097#1" to="141913259#5" type="bus_bus"/>
    <trip id="bus245" depart="2211.66" departLane="best" departSpeed="max" from="-5248465#2" to="-171479232#8" type="bus_bus"/>
    <trip id="bus246" depart="2220.68" departLane="best" from="-5248600#3" to="5245321#7" type="bus_bus"/>
    <trip id="bus247" depart="2229.71" departLane="best" from="-5248097#4" to="5245321#7" type="bus_bus"/>
    <trip id="bus248" depart="2238.74" departLane="best" from="5246282#4" to="5248873#6" type="bus_bus"/>
    <trip id="bus249" depart="2247.76" departLane="best" departSpeed="max" from="171479232#0" to="-5248603#0" type="bus_bus"/>
    <trip id="bus250" depart="2256.79" departLane="best" from="48232853#4" to="-5247010#0" type="bus_bus"/>
    <trip id="bus251" depart="2265.82" departLane="best" from="-424417969#2" to="5248097#9" type="bus_bus"/>
    <trip id="bus252" depart="2274.85" departLane="best" from="-5248103#11" to="5247219#4" type="bus_bus"/>
    <trip id="bus253" depart="2283.87" departLane="best" from="5248097#4" to="5248873#6" type="bus_bus"/>
    <trip id="bus254" depart="2292.90" departLane="best" from="424417969#2" to="-141913259#4" type="bus_bus"/>
    <trip id="bus255" depart="2301.93" departLane="best" from="5248603#6" to="5248097#11" type="bus_bus"/>
    <trip id="bus256" depart="2310.95" departLane="best" departSpeed="max" from="-5246897#7" to="-5246845#1" type="bus_bus"/>
    <trip id="bus257" depart="2319.98" departLane="best" from="5245321#2" to="-5248103#4" type="bus_bus"/>
    <trip id="bus258" depart="2329.01" departLane="best" from="-5248097#10" to="-123435765#0" type="bus_bus"/>