<?xml version="1.0" encoding="UTF-8"?>
<!-- generated on 2019-01-27 19:18:42.149776 by $Id$ via randomTrips.py
  options: 
-->
<routes xmlns:xsi="http://www.w3.org/2001/XMLSchema-instance" xsi:noNamespaceSchemaLocation="http://sumo.dlr.de/xsd/routes_file.xsd">
    <vType id="veh_passenger" vClass="passenger">
    </vType>
    <trip id="veh0" depart="0.00" departLane="best" from="238902094#3" to="-141913259#0" type="veh_passenger"/>
    <trip id="veh1" depart="3.01" departLane="best" from="5248103#4" to="-161730983#5" type="veh_passenger"/>
    <trip id="veh2" depart="6.02" departLane="best" from="-5248600#2" to="-141913259#3" type="veh_passenger"/>
    <trip id="veh3" depart="9.03" departLane="best" departSpeed="max" from="-5245321#8" to="161730983#3" type="veh_passenger"/>
    <trip id="veh4" depart="12.04" departLane="best" from="-159396197#0" to="-5246845#11" type="veh_passenger"/>
    <trip id="veh5" depart="15.05" departLane="best" departSpeed="max" from="-5245321#8" to="48232853#0" type="veh_passenger"/>
    <trip id="veh6" depart="18.05" departLane="best" departSpeed="max" from="5247010#0" to="-123435765#0" type="veh_passenger"/>
    <trip id="veh7" depart="21.06" departLane="best" departSpeed="max" from="5247010#0" to="5245321#0" type="veh_passenger"/>
    <trip id="veh8" depart="24.07" departLane="best" from="-5247826#1" to="-5244856#1" type="veh_passenger"/>
    <trip id="veh9" depart="27.08" departLane="best" from="5247714#8" to="48232853#4" type="veh_passenger"/>
    <trip id="veh10" depart="30.09" departLane="best" departSpeed="max" from="5247010#0" to="5246282#5" type="veh_passenger"/>
    <trip id="veh11" depart="33.10" departLane="best" from="141913259#7" to="5248873#6" type="veh_passenger"/>
    <trip id="veh12" depart="36.11" departLane="best" from="-5248103#4" to="238902094#4" type="veh_passenger"/>
    <trip id="veh13" depart="39.12" departLane="best" from="5247219#6" to="48232853#6" type="veh_passenger"/>
    <trip id="veh14" depart="42.13" departLane="best" from="5248097#0" to="424417969#2" type="veh_passenger"/>
    <trip id="veh15" depart="45.14" departLane="best" from="-5246282#3" to="-5248097#5" type="veh_passenger"/>
    <trip id="veh16" depart="48.14" departLane="best" from="-161730983#2" to="-5247010#0" type="veh_passenger"/>
    <trip id="veh17" depart="51.15" departLane="best" departSpeed="max" from="-161730983#9" to="-5247826#2" type="veh_passenger"/>
    <trip id="veh18" depart="54.16" departLane="best" from="238902094#2" to="-5248605#0" type="veh_passenger"/>
    <trip id="veh19" depart="57.17" departLane="best" from="-5248103#1" to="-5246845#5" type="veh_passenger"/>
    <trip id="veh20" depart="60.18" departLane="best" from="-5246845#8" to="5248603#5" type="veh_passenger"/>
    <trip id="veh21" depart="63.19" departLane="best" from="238902094#5" to="48232853#6" type="veh_passenger"/>
    <trip id="veh22" depart="66.20" departLane="best" departSpeed="max" from="-48232853#6" to="5246282#5" type="veh_passenger"/>
    <trip id="veh23" depart="69.21" departLane="best" departSpeed="max" from="-48232853#6" to="-5248804#4" type="veh_passenger"/>
    <trip id="veh24" depart="72.22" departLane="best" departSpeed="max" from="56323061#0" to="49682101#10" type="veh_passenger"/>
    <trip id="veh25" depart="75.23" departLane="best" from="159396207" to="5243462#8" type="veh_passenger"/>
    <trip id="veh26" depart="78.24" departLane="best" from="5247714#6" to="5246897#6" type="veh_passenger"/>
    <trip id="veh27" depart="81.24" departLane="best" from="-5247714#1" to="-5247714#6" type="veh_passenger"/>
    <trip id="veh28" depart="84.25" departLane="best" from="-5245321#6" to="5248804#0" type="veh_passenger"/>
    <trip id="veh29" depart="87.26" departLane="best" departSpeed="max" from="5248103#0" to="-5248103#5" type="veh_passenger"/>
    <trip id="veh30" depart="90.27" departLane="best" from="238902094#8" to="-5248890#0" type="veh_passenger"/>
    <trip id="veh31" depart="93.28" departLane="best" from="5248465#0" to="159396197#6" type="veh_passenger"/>
    <trip id="veh32" depart="96.29" departLane="best" from="-5246845#7" to="-5247219#1" type="veh_passenger"/>
    <trip id="veh33" depart="99.30" departLane="best" from="161730983#3" to="5248257#7" type="veh_passenger"/>
    <trip id="veh34" depart="102.31" departLane="best" from="-5248257#7" to="-5246897#1" type="veh_passenger"/>
    <trip id="veh35" depart="105.32" departLane="best" from="56323061#2" to="161730983#5" type="veh_passenger"/>
    <trip id="veh36" depart="108.33" departLane="best" from="-161730983#6" to="-159396197#5" type="veh_passenger"/>
    <trip id="veh37" depart="111.34" departLane="best" from="-171479232#1" to="49682101#1" type="veh_passenger"/>
    <trip id="veh38" depart="114.34" departLane="best" from="5246845#9" to="123435765#1" type="veh_passenger"/>
    <trip id="veh39" depart="117.35" departLane="best" departSpeed="max" from="-159396212#3" to="-5248804#6" type="veh_passenger"/>
    <trip id="veh40" depart="120.36" departLane="best" from="5248873#5" to="5248097#5" type="veh_passenger"/>
    <trip id="veh41" depart="123.37" departLane="best" from="-123435765#5" to="5246282#2" type="veh_passenger"/>
    <trip id="veh42" depart="126.38" departLane="best" from="-5246845#8" to="49682101#10" type="veh_passenger"/>
    <trip id="veh43" depart="129.39" departLane="best" from="-171479232#3" to="141913259#1" type="veh_passenger"/>
    <trip id="veh44" depart="132.40" departLane="best" departSpeed="max" from="-56323061#4" to="-5246603#0" type="veh_passenger"/>
    <trip id="veh45" depart="135.41" departLane="best" from="5248257#6" to="5248103#10" type="veh_passenger"/>
    <trip id="veh46" depart="138.42" departLane="best" from="171479232#3" to="-5243462#8" type="veh_passenger"/>
    <trip id="veh47" depart="141.43" departLane="best" departSpeed="max" from="5246845#0" to="171479232#8" type="veh_passenger"/>
    <trip id="veh48" depart="144.43" departLane="best" from="-123435765#1" to="-5248257#1" type="veh_passenger"/>
    <trip id="veh49" depart="147.44" departLane="best" from="-141913259#4" to="5248603#0" type="veh_passenger"/>
    <trip id="veh50" depart="150.45" departLane="best" departSpeed="max" from="5248103#0" to="5247826#0" type="veh_passenger"/>
    <trip id="veh51" depart="153.46" departLane="best" departSpeed="max" from="-5247219#9" to="-159396209" type="veh_passenger"/>
    <trip id="veh52" depart="156.47" departLane="best" departSpeed="max" from="5248103#0" to="5248804#2" type="veh_passenger"/>
    <trip id="veh53" depart="159.48" departLane="best" from="-161730983#4" to="159396212#3" type="veh_passenger"/>
    <trip id="veh54" depart="162.49" departLane="best" departSpeed="max" from="-159396212#3" to="5246845#7" type="veh_passenger"/>
    <trip id="veh55" depart="165.50" departLane="best" departSpeed="max" from="5246845#0" to="-48232853#2" type="veh_passenger"/>
    <trip id="veh56" depart="168.51" departLane="best" departSpeed="max" from="-5248873#6" to="238902094#3" type="veh_passenger"/>
    <trip id="veh57" depart="171.52" departLane="best" from="-5246845#7" to="5248103#11" type="veh_passenger"/>
    <trip id="veh58" depart="174.53" departLane="best" from="-5248600#2" to="-5246845#6" type="veh_passenger"/>
    <trip id="veh59" depart="177.53" departLane="best" from="159396197#0" to="5246282#5" type="veh_passenger"/>
    <trip id="veh60" depart="180.54" departLane="best" from="-5245321#0" to="-5248103#3" type="veh_passenger"/>
    <trip id="veh61" depart="183.55" departLane="best" from="-5248603#5" to="161730983#9" type="veh_passenger"/>
    <trip id="veh62" depart="186.56" departLane="best" from="-5247826#0" to="424417969#5" type="veh_passenger"/>
    <trip id="veh63" depart="189.57" departLane="best" departSpeed="max" from="-5246282#5" to="-5246897#2" type="veh_passenger"/>
    <trip id="veh64" depart="192.58" departLane="best" departSpeed="max" from="-159396212#3" to="49682101#10" type="veh_passenger"/>
    <trip id="veh65" depart="195.59" departLane="best" from="-5246282#4" to="5248257#8" type="veh_passenger"/>
    <trip id="veh66" depart="198.60" departLane="best" from="5247961#1" to="-159396212#3" type="veh_passenger"/>
    <trip id="veh67" depart="201.61" departLane="best" departSpeed="max" from="-5245321#8" to="-48232853#3" type="veh_passenger"/>
    <trip id="veh68" depart="204.62" departLane="best" from="5248603#4" to="315934747" type="veh_passenger"/>
    <trip id="veh69" depart="207.62" departLane="best" departSpeed="max" from="-5248873#6" to="5247010#1" type="veh_passenger"/>
    <trip id="veh70" depart="210.63" departLane="best" departSpeed="max" from="5247010#0" to="-5246845#0" type="veh_passenger"/>
    <trip id="veh71" depart="213.64" departLane="best" departSpeed="max" from="-161730983#9" to="123435765#5" type="veh_passenger"/>
    <trip id="veh72" depart="216.65" departLane="best" from="5243462#8" to="5243462#1" type="veh_passenger"/>
    <trip id="veh73" depart="219.66" departLane="best" from="5248890#4" to="-171479232#0" type="veh_passenger"/>
    <trip id="veh74" depart="222.67" departLane="best" departSpeed="max" from="-5248257#8" to="-5248600#0" type="veh_passenger"/>
    <trip id="veh75" depart="225.68" departLane="best" from="5248097#0" to="-5247219#2" type="veh_passenger"/>
    <trip id="veh76" depart="228.69" departLane="best" departSpeed="max" from="-5243462#9" to="159396197#1" type="veh_passenger"/>
    <trip id="veh77" depart="231.70" departLane="best" departSpeed="max" from="-5246845#15" to="5248600#3" type="veh_passenger"/>
    <trip id="veh78" depart="234.71" departLane="best" from="-5248605#2" to="5248097#5" type="veh_passenger"/>
    <trip id="veh79" depart="237.72" departLane="best" from="56323061#3" to="5247826#1" type="veh_passenger"/>
    <trip id="veh80" depart="240.72" departLane="best" from="5248873#4" to="5248600#5" type="veh_passenger"/>
    <trip id="veh81" depart="243.73" departLane="best" from="5247826#0" to="-5245321#6" type="veh_passenger"/>
    <trip id="veh82" depart="246.74" departLane="best" departSpeed="max" from="-5248257#8" to="-159396209" type="veh_passenger"/>
    <trip id="veh83" depart="249.75" departLane="best" from="-5246845#7" to="5247010#1" type="veh_passenger"/>
    <trip id="veh84" depart="252.76" departLane="best" from="-5248804#6" to="123435765#1" type="veh_passenger"/>
    <trip id="veh85" depart="255.77" departLane="best" from="5248804#4" to="56323061#4" type="veh_passenger"/>
    <trip id="veh86" depart="258.78" departLane="best" from="-48232853#4" to="-5248097#9" type="veh_passenger"/>
    <trip id="veh87" depart="261.79" departLane="best" from="5248873#4" to="424417969#4" type="veh_passenger"/>
    <trip id="veh88" depart="264.80" departLane="best" from="159396197#1" to="5246845#15" type="veh_passenger"/>
    <trip id="veh89" depart="267.81" departLane="best" departSpeed="max" from="-159396212#3" to="424417969#5" type="veh_passenger"/>
    <trip id="veh90" depart="270.82" departLane="best" departSpeed="max" from="123435765#0" to="5248097#11" type="veh_passenger"/>
    <trip id="veh91" depart="273.82" departLane="best" from="-48232853#5" to="5248804#7" type="veh_passenger"/>
    <trip id="veh92" depart="276.83" departLane="best" from="-161730983#2" to="-5246603#1" type="veh_passenger"/>
    <trip id="veh93" depart="279.84" departLane="best" from="161730983#7" to="5243462#2" type="veh_passenger"/>
    <trip id="veh94" depart="282.85" departLane="best" departSpeed="max" from="-5246282#5" to="-424417969#4" type="veh_passenger"/>
    <trip id="veh95" depart="285.86" departLane="best" from="5248103#2" to="-5247219#0" type="veh_passenger"/>
    <trip id="veh96" depart="288.87" departLane="best" from="161730983#7" to="48232853#6" type="veh_passenger"/>
    <trip id="veh97" depart="291.88" departLane="best" from="-5245321#2" to="5245321#8" type="veh_passenger"/>
    <trip id="veh98" depart="294.89" departLane="best" from="-5246603#1" to="-5248890#0" type="veh_passenger"/>
    <trip id="veh99" depart="297.90" departLane="best" from="48232853#2" to="-5248103#0" type="veh_passenger"/>
    <trip id="veh100" depart="300.91" departLane="best" from="-5247714#1" to="5246845#15" type="veh_passenger"/>
    <trip id="veh101" depart="303.91" departLane="best" from="-159396219#0" to="-5246845#7" type="veh_passenger"/>
    <trip id="veh102" depart="306.92" departLane="best" from="-5246845#7" to="5248603#2" type="veh_passenger"/>
    <trip id="veh103" depart="309.93" departLane="best" departSpeed="max" from="5248103#0" to="5248103#6" type="veh_passenger"/>
    <trip id="veh104" depart="312.94" departLane="best" from="-5248103#1" to="-5245321#0" type="veh_passenger"/>
    <trip id="veh105" depart="315.95" departLane="best" from="5247714#0" to="5245321#4" type="veh_passenger"/>
    <trip id="veh106" depart="318.96" departLane="best" from="171479232#6" to="5248890#5" type="veh_passenger"/>
    <trip id="veh107" depart="321.97" departLane="best" from="238902094#7" to="-123435765#0" type="veh_passenger"/>
    <trip id="veh108" depart="324.98" departLane="best" from="5247010#1" to="-5248103#0" type="veh_passenger"/>
    <trip id="veh109" depart="327.99" departLane="best" from="424417969#4" to="5248603#6" type="veh_passenger"/>
    <trip id="veh110" depart="331.00" departLane="best" from="5243462#1" to="-5246845#14" type="veh_passenger"/>
    <trip id="veh111" depart="334.01" departLane="best" from="238902094#1" to="-5247714#4" type="veh_passenger"/>
    <trip id="veh112" depart="337.01" departLane="best" from="-56323061#1" to="5248257#8" type="veh_passenger"/>
    <trip id="veh113" depart="340.02" departLane="best" from="5247714#8" to="-161730983#7" type="veh_passenger"/>
    <trip id="veh114" depart="343.03" departLane="best" from="-123435765#2" to="5246897#3" type="veh_passenger"/>
    <trip id="veh115" depart="346.04" departLane="best" from="238902094#2" to="-5247714#2" type="veh_passenger"/>
    <trip id="veh116" depart="349.05" departLane="best" from="-5248600#5" to="-123435765#0" type="veh_passenger"/>
    <trip id="veh117" depart="352.06" departLane="best" from="-159396219#1" to="5248103#8" type="veh_passenger"/>
    <trip id="veh118" depart="355.07" departLane="best" from="5248257#1" to="238902094#2" type="veh_passenger"/>
    <trip id="veh119" depart="358.08" departLane="best" from="5247714#0" to="424417969#5" type="veh_passenger"/>
    <trip id="veh120" depart="361.09" departLane="best" departSpeed="max" from="-5247219#9" to="5248257#8" type="veh_passenger"/>
    <trip id="veh121" depart="364.10" departLane="best" from="5246897#2" to="5248097#5" type="veh_passenger"/>
    <trip id="veh122" depart="367.10" departLane="best" from="5248103#8" to="-5246845#5" type="veh_passenger"/>
    <trip id="veh123" depart="370.11" departLane="best" departSpeed="max" from="-5246845#15" to="-171479232#0" type="veh_passenger"/>
    <trip id="veh124" depart="373.12" departLane="best" from="5246845#2" to="5248103#9" type="veh_passenger"/>
    <trip id="veh125" depart="376.13" departLane="best" departSpeed="max" from="-5248257#8" to="48232853#6" type="veh_passenger"/>
    <trip id="veh126" depart="379.14" departLane="best" from="-48232853#4" to="5248603#0" type="veh_passenger"/>
    <trip id="veh127" depart="382.15" departLane="best" from="5248097#10" to="5248873#6" type="veh_passenger"/>
    <trip id="veh128" depart="385.16" departLane="best" departSpeed="max" from="5247010#0" to="5248103#7" type="veh_passenger"/>
    <trip id="veh129" depart="388.17" departLane="best" from="-159396197#0" to="5246845#10" type="veh_passenger"/>
    <trip id="veh130" depart="391.18" departLane="best" departSpeed="max" from="-5247714#9" to="5248603#1" type="veh_passenger"/>
    <trip id="veh131" depart="394.19" departLane="best" from="5246897#6" to="5248097#7" type="veh_passenger"/>
    <trip id="veh132" depart="397.20" departLane="best" departSpeed="max" from="5247010#0" to="-5247714#5" type="veh_passenger"/>
    <trip id="veh133" depart="400.20" departLane="best" from="5246845#6" to="-171479232#4" type="veh_passenger"/>
    <trip id="veh134" depart="403.21" departLane="best" departSpeed="max" from="-5248804#7" to="-5248103#1" type="veh_passenger"/>
    <trip id="veh135" depart="406.22" departLane="best" from="5246897#1" to="-5246897#6" type="veh_passenger"/>
    <trip id="veh136" depart="409.23" departLane="best" from="-141913259#7" to="-5246845#0" type="veh_passenger"/>
    <trip id="veh137" depart="412.24" departLane="best" departSpeed="max" from="-5247714#9" to="5248097#7" type="veh_passenger"/>
    <trip id="veh138" depart="415.25" departLane="best" from="5248873#3" to="-5247826#4" type="veh_passenger"/>
    <trip id="veh139" depart="418.26" departLane="best" from="238902094#3" to="-5248890#0" type="veh_passenger"/>
    <trip id="veh140" depart="421.27" departLane="best" from="5248890#2" to="171479232#6" type="veh_passenger"/>
    <trip id="veh141" depart="424.28" departLane="best" from="5248603#6" to="-424417969#2" type="veh_passenger"/>
    <trip id="veh142" depart="427.29" departLane="best" from="5248873#5" to="-5246603#0" type="veh_passenger"/>
    <trip id="veh143" depart="430.29" departLane="best" from="5248873#0" to="-5247714#5" type="veh_passenger"/>
    <trip id="veh144" depart="433.30" departLane="best" departSpeed="max" from="171479232#0" to="161730983#5" type="veh_passenger"/>
    <trip id="veh145" depart="436.31" departLane="best" from="-5248103#8" to="424417969#2" type="veh_passenger"/>
    <trip id="veh146" depart="439.32" departLane="best" departSpeed="max" from="-5246845#15" to="5245321#7" type="veh_passenger"/>
    <trip id="veh147" depart="442.33" departLane="best" from="-123435765#1" to="5248600#5" type="veh_passenger"/>
    <trip id="veh148" depart="445.34" departLane="best" from="159396197#0" to="5246282#1" type="veh_passenger"/>
    <trip id="veh149" depart="448.35" departLane="best" from="5245321#6" to="49682101#9" type="veh_passenger"/>
    <trip id="veh150" depart="451.36" departLane="best" from="-5248097#6" to="-159396212#3" type="veh_passenger"/>
    <trip id="veh151" depart="454.37" departLane="best" from="48232853#0" to="-5248257#4" type="veh_passenger"/>
    <trip id="veh152" depart="457.38" departLane="best" from="-5247714#0" to="5248097#10" type="veh_passenger"/>
    <trip id="veh153" depart="460.39" departLane="best" from="5243462#3" to="-5248103#0" type="veh_passenger"/>
    <trip id="veh154" depart="463.39" departLane="best" departSpeed="max" from="-5247219#9" to="-56323061#0" type="veh_passenger"/>
    <trip id="veh155" depart="466.40" departLane="best" departSpeed="max" from="-5248257#8" to="-5248097#9" type="veh_passenger"/>
    <trip id="veh156" depart="469.41" departLane="best" from="-424417969#0" to="-56323061#3" type="veh_passenger"/>
    <trip id="veh157" depart="472.42" departLane="best" departSpeed="max" from="5248605#0" to="5243462#3" type="veh_passenger"/>
    <trip id="veh158" depart="475.43" departLane="best" from="5248257#0" to="48232853#6" type="veh_passenger"/>
    <trip id="veh159" depart="478.44" departLane="best" from="-123435765#1" to="-5248097#3" type="veh_passenger"/>
    <trip id="veh160" depart="481.45" departLane="best" from="-5248603#0" to="424417969#4" type="veh_passenger"/>
    <trip id="veh161" depart="484.46" departLane="best" from="-5248605#1" to="-5246845#8" type="veh_passenger"/>
    <trip id="veh162" depart="487.47" departLane="best" departSpeed="max" from="-5248873#6" to="5248257#8" type="veh_passenger"/>
    <trip id="veh163" depart="490.48" departLane="best" from="238902094#1" to="-5248465#0" type="veh_passenger"/>
    <trip id="veh164" depart="493.49" departLane="best" from="5247010#2" to="5246845#15" type="veh_passenger"/>
    <trip id="veh165" depart="496.49" departLane="best" from="-5244856#0" to="-141913259#0" type="veh_passenger"/>
    <trip id="veh166" depart="499.50" departLane="best" departSpeed="max" from="-5248465#2" to="49682101#1" type="veh_passenger"/>
    <trip id="veh167" depart="502.51" departLane="best" departSpeed="max" from="-5243462#9" to="5244856#1" type="veh_passenger"/>
    <trip id="veh168" depart="505.52" departLane="best" departSpeed="max" from="-56323061#4" to="-5247010#2" type="veh_passenger"/>
    <trip id="veh169" depart="508.53" departLane="best" from="238902094#8" to="-123435765#0" type="veh_passenger"/>
    <trip id="veh170" depart="511.54" departLane="best" from="5246282#3" to="5246897#3" type="veh_passenger"/>
    <trip id="veh171" depart="514.55" departLane="best" from="-161731011" to="123435765#2" type="veh_passenger"/>
    <trip id="veh172" depart="517.56" departLane="best" from="-5243462#0" to="5248804#7" type="veh_passenger"/>
    <trip id="veh173" depart="520.57" departLane="best" from="123435765#3" to="-159396197#6" type="veh_passenger"/>
    <trip id="veh174" depart="523.58" departLane="best" departSpeed="max" from="-5246845#15" to="5248097#10" type="veh_passenger"/>
    <trip id="veh175" depart="526.58" departLane="best" departSpeed="max" from="-5248804#7" to="5247219#8" type="veh_passenger"/>
    <trip id="veh176" depart="529.59" departLane="best" from="161730983#7" to="5248804#4" type="veh_passenger"/>
    <trip id="veh177" depart="532.60" departLane="best" from="5248103#3" to="48232853#6" type="veh_passenger"/>
    <trip id="veh178" depart="535.61" departLane="best" from="5243462#2" to="161730983#3" type="veh_passenger"/>
    <trip id="veh179" depart="538.62" departLane="best" from="5248103#7" to="5246845#14" type="veh_passenger"/>
    <trip id="veh180" depart="541.63" departLane="best" departSpeed="max" from="-5248873#6" to="-5247714#1" type="veh_passenger"/>
    <trip id="veh181" depart="544.64" departLane="best" from="-5246845#14" to="49682101#10" type="veh_passenger"/>
    <trip id="veh182" depart="547.65" departLane="best" departSpeed="max" from="5246845#0" to="161730983#9" type="veh_passenger"/>
    <trip id="veh183" depart="550.66" departLane="best" departSpeed="max" from="238902094#0" to="-5247826#1" type="veh_passenger"/>
    <trip id="veh184" depart="553.67" departLane="best" from="-161730983#1" to="-5248097#10" type="veh_passenger"/>
    <trip id="veh185" depart="556.68" departLane="best" from="-5246897#1" to="-5248103#8" type="veh_passenger"/>
    <trip id="veh186" depart="559.68" departLane="best" from="159396197#1" to="-48232853#5" type="veh_passenger"/>
    <trip id="veh187" depart="562.69" departLane="best" departSpeed="max" from="-5246282#5" to="5244856#0" type="veh_passenger"/>
    <trip id="veh188" depart="565.70" departLane="best" from="49682101#7" to="-159396212#1" type="veh_passenger"/>
    <trip id="veh189" depart="568.71" departLane="best" from="-5248465#0" to="238902094#1" type="veh_passenger"/>
    <trip id="veh190" depart="571.72" departLane="best" departSpeed="max" from="-5248465#2" to="-5246845#3" type="veh_passenger"/>
    <trip id="veh191" depart="574.73" departLane="best" from="-5248600#0" to="5248257#8" type="veh_passenger"/>
    <trip id="veh192" depart="577.74" departLane="best" from="161730983#3" to="5244856#1" type="veh_passenger"/>
    <trip id="veh193" depart="580.75" departLane="best" from="-5248103#5" to="-123435765#0" type="veh_passenger"/>
    <trip id="veh194" depart="583.76" departLane="best" departSpeed="max" from="-5248097#11" to="5246845#2" type="veh_passenger"/>
    <trip id="veh195" depart="586.77" departLane="best" from="5247826#2" to="5248804#6" type="veh_passenger"/>
    <trip id="veh196" depart="589.77" departLane="best" from="-5248600#0" to="5246845#15" type="veh_passenger"/>
    <trip id="veh197" depart="592.78" departLane="best" from="159396197#4" to="48232853#4" type="veh_passenger"/>
    <trip id="veh198" depart="595.79" departLane="best" departSpeed="max" from="-5245321#8" to="-5246897#1" type="veh_passenger"/>
    <trip id="veh199" depart="598.80" departLane="best" from="-5248603#3" to="-141913259#3" type="veh_passenger"/>
    <trip id="veh200" depart="601.81" departLane="best" from="-5247826#0" to="5243462#5" type="veh_passenger"/>
    <trip id="veh201" depart="604.82" departLane="best" departSpeed="max" from="-5248257#8" to="-5245321#5" type="veh_passenger"/>
    <trip id="veh202" depart="607.83" departLane="best" from="-5248873#2" to="-48232853#2" type="veh_passenger"/>
    <trip id="veh203" depart="610.84" departLane="best" departSpeed="max" from="238902094#0" to="-141913259#1" type="veh_passenger"/>
    <trip id="veh204" depart="613.85" departLane="best" from="-5248257#4" to="238902094#8" type="veh_passenger"/>
    <trip id="veh205" depart="616.86" departLane="best" from="-159396197#1" to="49682101#10" type="veh_passenger"/>
    <trip id="veh206" depart="619.87" departLane="best" departSpeed="max" from="-424417969#5" to="159396197#7" type="veh_passenger"/>
    <trip id="veh207" depart="622.87" departLane="best" from="-5245321#6" to="-5248257#2" type="veh_passenger"/>
    <trip id="veh208" depart="625.88" departLane="best" from="5246603#1" to="-5248804#4" type="veh_passenger"/>
    <trip id="veh209" depart="628.89" departLane="best" from="5246282#4" to="5247826#0" type="veh_passenger"/>
    <trip id="veh210" depart="631.90" departLane="best" departSpeed="max" from="-5246845#15" to="-161730983#3" type="veh_passenger"/>
    <trip id="veh211" depart="634.91" departLane="best" from="-141913259#4" to="171479232#8" type="veh_passenger"/>
    <trip id="veh212" depart="637.92" departLane="best" from="56323061#3" to="-5248603#0" type="veh_passenger"/>
    <trip id="veh213" depart="640.93" departLane="best" from="238902094#6" to="5246897#7" type="veh_passenger"/>
    <trip id="veh214" depart="643.94" departLane="best" from="5248605#2" to="-5246845#11" type="veh_passenger"/>
    <trip id="veh215" depart="646.95" departLane="best" from="-141913259#5" to="-5243462#8" type="veh_passenger"/>
    <trip id="veh216" depart="649.96" departLane="best" departSpeed="max" from="-315934747" to="49682101#9" type="veh_passenger"/>
    <trip id="veh217" depart="652.97" departLane="best" from="159396212#0" to="-5246897#0" type="veh_passenger"/>
    <trip id="veh218" depart="655.97" departLane="best" from="49682101#5" to="5246897#1" type="veh_passenger"/>
    <trip id="veh219" depart="658.98" departLane="best" departSpeed="max" from="-48232853#6" to="48232853#5" type="veh_passenger"/>
    <trip id="veh220" depart="661.99" departLane="best" from="5246282#1" to="-424417969#0" type="veh_passenger"/>
    <trip id="veh221" depart="665.00" departLane="best" from="5247010#2" to="5248873#1" type="veh_passenger"/>
    <trip id="veh222" depart="668.01" departLane="best" departSpeed="max" from="-5247219#9" to="5243462#3" type="veh_passenger"/>
    <trip id="veh223" depart="671.02" departLane="best" from="5248804#4" to="-5248890#0" type="veh_passenger"/>
    <trip id="veh224" depart="674.03" departLane="best" departSpeed="max" from="-161730983#9" to="5246897#4" type="veh_passenger"/>
    <trip id="veh225" depart="677.04" departLane="best" from="5247826#1" to="48232853#3" type="veh_passenger"/>
    <trip id="veh226" depart="680.05" departLane="best" departSpeed="max" from="-315934747" to="5248890#3" type="veh_passenger"/>
    <trip id="veh227" depart="683.06" departLane="best" from="5246845#3" to="-5248600#5" type="veh_passenger"/>
    <trip id="veh228" depart="686.06" departLane="best" from="-5248600#6" to="-5248605#2" type="veh_passenger"/>
    <trip id="veh229" depart="689.07" departLane="best" departSpeed="max" from="123435765#0" to="-5248600#1" type="veh_passenger"/>
    <trip id="veh230" depart="692.08" departLane="best" from="5247826#0" to="5247714#8" type="veh_passenger"/>
    <trip id="veh231" depart="695.09" departLane="best" departSpeed="max" from="-161730983#9" to="5248804#7" type="veh_passenger"/>
    <trip id="veh232" depart="698.10" departLane="best" from="238902094#2" to="5247714#9" type="veh_passenger"/>
    <trip id="veh233" depart="701.11" departLane="best" from="49682101#7" to="141913259#1" type="veh_passenger"/>
    <trip id="veh234" depart="704.12" departLane="best" from="5245321#0" to="5248873#2" type="veh_passenger"/>
    <trip id="veh235" depart="707.13" departLane="best" from="-5246897#0" to="5247219#9" type="veh_passenger"/>
    <trip id="veh236" depart="710.14" departLane="best" from="159396197#0" to="159396212#3" type="veh_passenger"/>
    <trip id="veh237" depart="713.15" departLane="best" from="-5248603#3" to="5246282#5" type="veh_passenger"/>
    <trip id="veh238" depart="716.16" departLane="best" from="-5246845#9" to="5248097#11" type="veh_passenger"/>
    <trip id="veh239" depart="719.16" departLane="best" from="5247219#7" to="-161730983#5" type="veh_passenger"/>
    <trip id="veh240" depart="722.17" departLane="best" departSpeed="max" from="5248103#0" to="-5247010#2" type="veh_passenger"/>
    <trip id="veh241" depart="725.18" departLane="best" from="-5248873#1" to="48232853#6" type="veh_passenger"/>
    <trip id="veh242" depart="728.19" departLane="best" from="5247826#1" to="-5246603#0" type="veh_passenger"/>
    <trip id="veh243" depart="731.20" departLane="best" from="-5247826#1" to="5248103#6" type="veh_passenger"/>
    <trip id="veh244" depart="734.21" departLane="best" from="49682101#5" to="-5247826#1" type="veh_passenger"/>
    <trip id="veh245" depart="737.22" departLane="best" from="-123435765#5" to="5248804#3" type="veh_passenger"/>
    <trip id="veh246" depart="740.23" departLane="best" from="-161730983#4" to="5246282#1" type="veh_passenger"/>
    <trip id="veh247" depart="743.24" departLane="best" from="-56323061#2" to="5247219#2" type="veh_passenger"/>
    <trip id="veh248" depart="746.25" departLane="best" from="49682101#2" to="-5248103#1" type="veh_passenger"/>
    <trip id="veh249" depart="749.25" departLane="best" from="161730983#2" to="159396212#1" type="veh_passenger"/>
    <trip id="veh250" depart="752.26" departLane="best" from="141913259#3" to="123435765#2" type="veh_passenger"/>
    <trip id="veh251" depart="755.27" departLane="best" from="5246282#0" to="-5248257#5" type="veh_passenger"/>