<?xml version="1.0" encoding="UTF-8"?>

<!-- generated on 01/27/19 19:18:44 by Eclipse SUMO duarouter Version v1_1_0+0008-ffcb6ceee0
<configuration xmlns:xsi="http://www.w3.org/2001/XMLSchema-instance" xsi:noNamespaceSchemaLocation="http://sumo.dlr.de/xsd/duarouterConfiguration.xsd">

    <input>
        <net-file value="C:\Users\sunde\Documents\GitHub\AR-Sandbox-for-Construction-Planning\src\AR_Sumobox\Assets\Generated\Networks\new_network\osm.net.xml"/>
        <route-files value="C:\Users\sunde\Documents\GitHub\AR-Sandbox-for-Construction-Planning\src\AR_Sumobox\Assets\Generated\Networks\new_network\osm.bicycle.trips.xml"/>
    </input>

    <output>
        <output-file value="C:\Users\sunde\Documents\GitHub\AR-Sandbox-for-Construction-Planning\src\AR_Sumobox\Assets\Generated\Networks\new_network\osm.bicycle.rou.xml"/>
        <alternatives-output value="C:\Users\sunde\Documents\GitHub\AR-Sandbox-for-Construction-Planning\src\AR_Sumobox\Assets\Generated\Networks\new_network\osm.bicycle.rou.alt.xml"/>
    </output>

    <time>
        <begin value="0"/>
        <end value="3600.0"/>
    </time>

    <report>
        <no-warnings value="true"/>
        <ignore-errors value="true"/>
        <no-step-log value="true"/>
    </report>

</configuration>
-->

<routes xmlns:xsi="http://www.w3.org/2001/XMLSchema-instance" xsi:noNamespaceSchemaLocation="http://sumo.dlr.de/xsd/routes_file.xsd">
    <vType id="bike_bicycle" vClass="bicycle"/>
    <vehicle id="bike0" type="bike_bicycle" depart="0.00" departLane="best">
        <route edges="286524698 -286524698 171479232#6 5248804#3 5248804#4 -5246845#11 -5246845#10 -5246845#9 5248465#0 -141913259#2 -141913259#1"/>
    </vehicle>
    <vehicle id="bike1" type="bike_bicycle" depart="5.61" departLane="best">
        <route edges="-5246845#5 5246845#5 5246845#6 5246845#7 5246845#8 -5246845#8"/>
    </vehicle>
    <vehicle id="bike2" type="bike_bicycle" depart="11.23" departLane="best">
        <route edges="5245321#5 -5246845#2 -5247219#6 -5247219#5 49682101#8 49682101#9 49682101#10"/>
    </vehicle>
    <vehicle id="bike3" type="bike_bicycle" depart="16.84" departLane="best">
        <route edges="5248257#7 -5248257#7 -5248257#6 -48232853#4 263548359 171479232#3 -5246897#2 -5246897#1 -5246897#0 -161730983#4"/>
    </vehicle>
    <vehicle id="bike4" type="bike_bicycle" depart="22.46" departLane="best">
        <route edges="-5248600#5 -5248600#4 5246897#1 315935169 171479232#6 5248804#3 5248804#4 -5246845#11 -316335138 -141913259#4"/>
    </vehicle>
    <vehicle id="bike5" type="bike_bicycle" depart="28.07" departLane="best">
        <route edges="-5243462#8 -5243462#7 -5243462#6 -5243462#5 -5243462#4 -5243462#3 -5243462#2 -5243462#1 -5243462#0 159396197#0 159396197#1"/>
    </vehicle>
    <vehicle id="bike6" type="bike_bicycle" depart="33.69" departLane="best" departSpeed="max">
        <route edges="-100974469 -5248097#4 -5248097#3 -5248097#1 -5248097#0 -159396197#3 -159396197#1 -159396197#0 -123435765#5 -123435765#4 -123435765#3 -123435765#2 -5246603#1"/>
    </vehicle>
    <vehicle id="bike7" type="bike_bicycle" depart="39.30" departLane="best">
        <route edges="316333792#0 5246845#13 -5246897#4 -5246897#3 -5246897#2 -5246897#1 -5246897#0 161730983#5 -123435724#3 -123435724#2 -123435724#1 -123435724#0 159396225#1 159396225#2 159396225#4 159396225#5 159396225#6 159396225#7"/>
    </vehicle>
    <vehicle id="bike8" type="bike_bicycle" depart="44.92" departLane="best" departSpeed="max">
        <route edges="-5243462#9 5248103#4 5248103#5 -5248097#10 141913259#0 -5246282#3 5246845#7 -56323061#1 238902094#8"/>
    </vehicle>
    <vehicle id="bike9" type="bike_bicycle" depart="50.53" departLane="best">
        <route edges="5247219#6 -5247219#6 238902094#2 -5245321#4 -5245321#3 5248603#1 5248603#2 5248603#3 -5247714#1 -5247714#0 159396197#3 159396197#4 159396197#5 159396197#6 159396197#7 161730983#1 161730983#2 161730983#3 161730983#4 161730983#5 -123435724#3 -123435724#2 -123435724#1"/>
    </vehicle>
    <vehicle id="bike10" type="bike_bicycle" depart="56.15" departLane="best">
        <route edges="5247219#4 -5247219#4 5248603#0 5248603#1 5243462#2 5243462#3"/>
    </vehicle>
    <vehicle id="bike11" type="bike_bicycle" depart="61.76" departLane="best">
        <route edges="-5247826#1 -5247826#0 -159396197#7 100974463#0 5248097#1 5248097#3 5248097#4 5248097#5 -5248603#4 -5248603#3 -5248603#2 -5243462#1"/>
    </vehicle>
    <vehicle id="bike12" type="bike_bicycle" depart="67.38" departLane="best">
        <route edges="5248873#4 -5248873#4 5246845#1 -5247219#6 238902094#2 -5245321#4 -5245321#3 -5245321#2 -5245321#1 -5245321#0 123435765#5 -5247010#2 159396219#0 159396219#1 159396219#2 -159396225#11 -159396225#10 -159396225#9 -159396225#8 -159396225#7 -159396225#6 -159396225#5 -159396225#4 -5248440#4 -5248440#3 -5248440#2 -5248440#1 -5248440#0"/>
    </vehicle>
    <vehicle id="bike13" type="bike_bicycle" depart="72.99" departLane="best">
        <route edges="-159396225#4 -159396225#2 -159396225#1 123435724#0 123435724#1 123435724#2 123435724#3 161730983#6 161730983#7 5248257#0 5248257#1 5248257#2 5248257#3 5248257#4 -171479232#0"/>
    </vehicle>
    <vehicle id="bike14" type="bike_bicycle" depart="78.61" departLane="best">
        <route edges="5248097#3 5248097#4 5248097#5 5248603#5 5248603#6 5248600#0 5248600#1 5248600#2 5248600#3 5248600#4 5248600#5 315933910"/>
    </vehicle>
    <vehicle id="bike15" type="bike_bicycle" depart="84.22" departLane="best">
        <route edges="5247219#5 238902094#2 5245321#5 5245321#6 5245321#7 5245321#8"/>
    </vehicle>
    <vehicle id="bike16" type="bike_bicycle" depart="89.84" departLane="best">
        <route edges="141913259#1 56323061#3 56323061#4"/>
    </vehicle>
    <vehicle id="bike17" type="bike_bicycle" depart="95.45" departLane="best">
        <route edges="-5248103#7 -5246282#4 -5246282#3 -5246282#2 -5246282#1 -5246282#0 5248603#6 -5247826#2 -5247826#1 -5247826#0 161730983#1 161730983#2"/>
    </vehicle>
    <vehicle id="bike18" type="bike_bicycle" depart="101.07" departLane="best">
        <route edges="5247714#7 5248890#5 141913259#0 141913259#1 141913259#2 141913259#3 141913259#4 316335138"/>
    </vehicle>
    <vehicle id="bike19" type="bike_bicycle" depart="106.68" departLane="best" departSpeed="max">
        <route edges="5248103#0 -5248873#5 -5248873#4 -5248873#3 238902094#1"/>
    </vehicle>
    <vehicle id="bike20" type="bike_bicycle" depart="112.29" departLane="best">
        <route edges="49682101#7 -5247219#4 5248603#0 5248603#1 5248603#2 5248603#3 5248603#4 5248603#5 5248603#6 -5247826#2 -5247826#1 -5247826#0 -159396197#7"/>
    </vehicle>
    <vehicle id="bike21" type="bike_bicycle" depart="117.91" departLane="best">
        <route edges="-5245321#1 -5245321#0 123435765#5 159396197#0 159396197#1 159396197#3 5248097#0 5248097#1 5248097#3 -5248097#3"/>
    </vehicle>
    <vehicle id="bike22" type="bike_bicycle" depart="123.52" departLane="best">
        <route edges="-159396219#0 5247010#2 159396197#0 159396197#1 159396197#3 159396197#4 159396197#5 159396197#6 159396197#7 161730983#1 161730983#2 161730983#3 161730983#4 5246897#0 5246897#1 5246897#2 5246897#3 5246897#4 -5246897#4"/>
    </vehicle>
    <vehicle id="bike23" type="bike_bicycle" depart="129.14" departLane="best">
        <route edges="-159396225#9 159396225#9 159396225#10 159396225#11 -159396219#2 -159396219#1 -159396219#0 5247010#2 159396197#0 159396197#1 159396197#3 159396197#4 159396197#5 159396197#6 159396197#7 5247826#0 5247826#1 -93014833 93014833 -5247826#1 -5247826#0"/>
    </vehicle>
    <vehicle id="bike24" type="bike_bicycle" depart="134.75" departLane="best">
        <route edges="238902094#7 238902094#8 -161731011 159396207 -5247826#4 -5248603#6 -5248603#5 -5248603#4 -5248603#3 -5248603#2"/>
    </vehicle>
    <vehicle id="bike25" type="bike_bicycle" depart="140.37" departLane="best">
        <route edges="-5248103#2 5248103#2 5248103#3 5248103#4 5248103#5 -5248097#10 141913259#0 -5246282#3 5246845#7 5246845#8 5246845#9 5246845#10 5246845#11 5246845#12 5246845#13 -5246845#13"/>
    </vehicle>
    <vehicle id="bike26" type="bike_bicycle" depart="145.98" departLane="best" departSpeed="max">
        <route edges="-5246845#15 -5248257#7 -5248257#6 -48232853#4 -48232853#3 -5246897#3 171479232#4 171479232#6 5248804#3"/>
    </vehicle>
    <vehicle id="bike27" type="bike_bicycle" depart="151.60" departLane="best">
        <route edges="315935169 -315935169 5246897#2 -171479232#3 315934747"/>
    </vehicle>
    <vehicle id="bike28" type="bike_bicycle" depart="157.21" departLane="best">
        <route edges="-394751651#0 49682101#4 5243462#3 5243462#4 5243462#5 5243462#6 5243462#7 -5248890#3 5245321#7 5245321#8"/>
    </vehicle>
    <vehicle id="bike29" type="bike_bicycle" depart="162.83" departLane="best" departSpeed="max">
        <route edges="-346414619 346414618 -424417969#3 -424417969#2 -424417969#0 -161730983#7 -161730983#6 -161730983#5 -161730983#4 -161730983#3 5248804#0 -5248804#0"/>
    </vehicle>
    <vehicle id="bike30" type="bike_bicycle" depart="168.44" departLane="best" departSpeed="max">
        <route edges="92994210 -424417969#2 -424417969#0 -161730983#7 -161730983#6 -161730983#5 -161730983#4 -161730983#3 -161730983#2 -161730983#1 -159396197#7 100974463#0 5248097#1 5248097#3 5248097#4 5248097#5 -5248603#4 5247714#2 49682101#3 394751651#0 394751651#1"/>
    </vehicle>
    <vehicle id="bike31" type="bike_bicycle" depart="174.06" departLane="best">
        <route edges="159396197#7 5247826#0 5247826#1 5247826#2 -5248603#6 5246282#0 49682101#1 49682101#2 49682101#3 49682101#4 49682101#5"/>
    </vehicle>
    <vehicle id="bike32" type="bike_bicycle" depart="179.67" departLane="best">
        <route edges="5248097#0 -5248097#0 159396197#4 159396197#5 159396197#6 159396197#7 161730983#1 161730983#2 161730983#3 161730983#4 5246897#0 5246897#1 5246897#2 5246897#3"/>
    </vehicle>
    <vehicle id="bike33" type="bike_bicycle" depart="185.29" departLane="best">
        <route edges="-5245321#1 -5245321#0 123435765#5 159396197#0 159396197#1 159396197#3 159396197#4 159396197#5 159396197#6 159396197#7 161730983#1 161730983#2 5248804#0 5248804#1 5248804#2 5248804#3 5248804#4 5246845#12 -316333792#0 -141913259#6"/>
    </vehicle>
    <vehicle id="bike34" type="bike_bicycle" depart="190.90" departLane="best" departSpeed="max">
        <route edges="-5247219#9 5248103#2 -5245321#7 -5245321#6 5246845#3 -5243462#6 238902094#4 -5247714#4 -5247714#3"/>
    </vehicle>
    <vehicle id="bike35" type="bike_bicycle" depart="196.52" departLane="best">
        <route edges="-5243462#4 5243462#4 5243462#5 238902094#4 238902094#5 238902094#6 238902094#7 238902094#8 159396212#0 5246845#10 5246845#11 5248804#5 5248804#6 5248804#7"/>
    </vehicle>
    <vehicle id="bike36" type="bike_bicycle" depart="202.13" departLane="best">
        <route edges="5248103#7 -5248103#7 -5248103#6 -5248103#5"/>
    </vehicle>
    <vehicle id="bike37" type="bike_bicycle" depart="207.75" departLane="best" departSpeed="max">
        <route edges="332073132 5247714#6 -5246845#4 -5246845#3 -5246845#2 -5246845#1 -5248873#3 -5248873#2"/>
    </vehicle>
    <vehicle id="bike38" type="bike_bicycle" depart="213.36" departLane="best">
        <route edges="5248600#4 -5248600#4 -5248600#3 -5248600#2 -5248804#1 -5248804#0 -161730983#2 -161730983#1 -159396197#7 100974463#0"/>
    </vehicle>
    <vehicle id="bike39" type="bike_bicycle" depart="218.98" departLane="best">
        <route edges="-5246845#14 -5246897#4 -48232853#2 -286524722 171479232#6 -5248804#2 -5248804#1 -5248804#0 -161730983#2 -161730983#1 -159396197#7 -159396197#6 -159396197#5 -159396197#4 -159396197#3 -159396197#1 -159396197#0 -123435765#5 5245321#0 5245321#1 -315928579 -5247219#1"/>
    </vehicle>
    <vehicle id="bike40" type="bike_bicycle" depart="224.59" departLane="best">
        <route edges="159396207 -5247826#4 -5248603#6 -5248603#5 -5248603#4 -5247714#1 -5247714#0"/>
    </vehicle>
    <vehicle id="bike41" type="bike_bicycle" depart="230.20" departLane="best">
        <route edges="159396225#4 -159396225#4 -159396225#2 -159396225#1 123435724#0 123435724#1 123435724#2 123435724#3 -161730983#5 5246897#0 -5248600#3 -286524698 171479232#6 5248804#3 5248804#4 -5246845#11 -5246845#10 -5246845#9 5248465#0"/>
    </vehicle>
    <vehicle id="bike42" type="bike_bicycle" depart="235.82" departLane="best" departSpeed="max">
        <route edges="-5248257#8 -5246845#14 -5246845#13 -5246845#12 -5246845#11 -5246845#10 -5246845#9 -5246845#8 -5246845#7 -5246845#6"/>
    </vehicle>
    <vehicle id="bike43" type="bike_bicycle" depart="241.43" departLane="best">
        <route edges="93014834#0 93014831 93014833 -5247826#1 -5247826#0 -159396197#7 -159396197#6 -159396197#5 159396197#5"/>
    </vehicle>
    <vehicle id="bike44" type="bike_bicycle" depart="247.05" departLane="best">
        <route edges="-159396225#2 -159396225#1 123435724#0 123435724#1 123435724#2 123435724#3 -161730983#5 -161730983#4 -161730983#3 -161730983#2 -161730983#1 -159396197#7"/>
    </vehicle>
    <vehicle id="bike45" type="bike_bicycle" depart="252.66" departLane="best">
        <route edges="-161730983#6 -161730983#5 5246897#0 5248600#4 5248600#5 5248600#6 -5248257#3 -5248257#2 -5248257#1 -5248257#0 424417969#0 424417969#2 424417969#3 424417969#4 100813004 346414619"/>
    </vehicle>
    <vehicle id="bike46" type="bike_bicycle" depart="258.28" departLane="best">
        <route edges="5246897#6 -5246897#6 -5246897#5 -5246897#4 -48232853#2 -286524722 171479232#6 -5248804#2 -5248804#1 -5248804#0 -161730983#2 -161730983#1 -159396197#7 -159396197#6 -159396197#5 92369358 -92369358"/>
    </vehicle>
    <vehicle id="bike47" type="bike_bicycle" depart="263.89" departLane="best">
        <route edges="-159396197#5 159396197#5 159396197#6 159396197#7 161730983#1 161730983#2 5248804#0 5248804#1 -5248804#1"/>
    </vehicle>
    <vehicle id="bike48" type="bike_bicycle" depart="269.51" departLane="best">
        <route edges="93014833 -5247826#1 -5247826#0 -159396197#7 -159396197#6 -159396197#5 -159396197#4 -159396197#3 -159396197#1 -159396197#0 -5247010#2 159396219#0"/>
    </vehicle>
    <vehicle id="bike49" type="bike_bicycle" depart="275.12" departLane="best">
        <route edges="5248890#5 -5248890#5 5247714#8 -5248103#4 -5248103#3 -5248103#2 5248103#2"/>
    </vehicle>
    <vehicle id="bike50" type="bike_bicycle" depart="280.74" departLane="best">
        <route edges="-100974462 5247714#1 -5248603#3 -5248603#2 -5248603#1 5245321#3 5245321#4"/>
    </vehicle>
    <vehicle id="bike51" type="bike_bicycle" depart="286.35" departLane="best">
        <route edges="48232853#0 -5248804#3 -5248804#2 -5248804#1 -5248804#0 -161730983#2 -161730983#1 -159396197#7 -159396197#6 -159396197#5 -159396197#4 -159396197#3 -159396197#1 -159396197#0 -5247010#2 159396219#0 159396219#1 159396219#2 -159396225#11 159396225#11"/>
    </vehicle>
    <vehicle id="bike52" type="bike_bicycle" depart="291.97" departLane="best" departSpeed="max">
        <route edges="-5246845#15 -5248257#7 -5248257#6 -48232853#4 -48232853#3 -5246897#3 171479232#4 171479232#6 171479232#7 171479232#8 49682101#0 49682101#1 49682101#2 49682101#3 49682101#4 5243462#3 5243462#4 -394751650 394751652#1"/>
    </vehicle>
    <vehicle id="bike53" type="bike_bicycle" depart="297.58" departLane="best">
        <route edges="-161730983#7 -93014830"/>
    </vehicle>
    <vehicle id="bike54" type="bike_bicycle" depart="303.20" departLane="best" departSpeed="max">
        <route edges="-5248804#7 -5248804#6 -141913259#5 -141913259#4 -159396212#1 -5246845#9 -5246845#8 -5246845#7 -5246845#6 -5246845#5 -5246845#4 -5246845#3 -5246845#2 -5246845#1 5248873#4"/>
    </vehicle>
    <vehicle id="bike55" type="bike_bicycle" depart="308.81" departLane="best">
        <route edges="5248103#7 -5248103#7 -5246282#4 -141913259#0 -5248097#9 -5246845#5 -5247714#6 -5247714#5 -5247714#4 -5247714#3 -5247714#2 -5247714#1"/>
    </vehicle>
    <vehicle id="bike56" type="bike_bicycle" depart="314.43" departLane="best">
        <route edges="-93014834#0 -5248600#0 -5248603#6 5246282#0 49682101#1 49682101#2 49682101#3 49682101#4 49682101#5 49682101#6 -5245321#3"/>
    </vehicle>
    <vehicle id="bike57" type="bike_bicycle" depart="320.04" departLane="best">
        <route edges="5248600#3 -5248600#3 -286524698 171479232#6 5248804#3 5248804#4 -5246845#11 -5246845#10 -5246845#9 5248465#0 5248465#1 -5248103#8 5248103#8"/>
    </vehicle>
    <vehicle id="bike58" type="bike_bicycle" depart="325.66" departLane="best" departSpeed="max">
        <route edges="-5246897#7 -5248103#11 -5248804#6 -141913259#5 -141913259#4 -159396212#1 -159396212#0 -161731011 159396207 49682101#0 49682101#1 49682101#2 49682101#3 394751651#0 394751651#1"/>
    </vehicle>
    <vehicle id="bike59" type="bike_bicycle" depart="331.27" departLane="best" departSpeed="max">
        <route edges="171479232#0 5248257#5 48232853#5 -48232853#5"/>
    </vehicle>
    <vehicle id="bike60" type="bike_bicycle" depart="336.88" departLane="best">
        <route edges="5246845#12 5246845#13 -5246897#4 -5246897#3 -5246897#2 -5246897#1 -5246897#0 161730983#5 -123435724#3 -123435724#2 -123435724#1 -123435724#0 159396225#1 159396225#2"/>
    </vehicle>
    <vehicle id="bike61" type="bike_bicycle" depart="342.50" departLane="best">
        <route edges="5246845#8 5246845#9 -159396212#0 -161731011 159396207 -5247826#4 -5248603#6 -5248603#5 -5248603#4 -5247714#1 100974462 -159396197#0 -5247010#2 159396219#0 159396219#1"/>
    </vehicle>
    <vehicle id="bike62" type="bike_bicycle" depart="348.11" departLane="best" departSpeed="max">
        <route edges="-100813049 -424417969#0 5248257#0 5248257#1 -5248257#1"/>
    </vehicle>
    <vehicle id="bike63" type="bike_bicycle" depart="353.73" departLane="best" departSpeed="max">
        <route edges="-100974465 5248097#3 5248097#4 5248097#5 -5248603#4 -5248603#3 -5248603#2 -5248603#1 -5248603#0 -5248605#2 -5248605#1 5248605#1"/>
    </vehicle>
    <vehicle id="bike64" type="bike_bicycle" depart="359.34" departLane="best">
        <route edges="5248103#9 -159396212#2 -159396212#1 -159396212#0 -161731011 159396207 -5247826#4 -5248603#6 -5248603#5 -5248603#4 -5247714#1 100974462 -159396197#0 -5247010#2 5247961#0"/>
    </vehicle>
    <vehicle id="bike65" type="bike_bicycle" depart="364.96" departLane="best">
        <route edges="-5247219#4 5248603#0 -5245321#2 -5245321#1 -5245321#0 123435765#5 -5247010#2 159396219#0 159396219#1 -159396219#1"/>
    </vehicle>
    <vehicle id="bike66" type="bike_bicycle" depart="370.57" departLane="best">
        <route edges="5248103#8 -5248465#1 -5248465#0 5246845#9 -159396212#0 -161731011 159396207 -5247826#4 -5248603#6 -5248603#5 -5248603#4 -5248603#3 -5248603#2 -5248603#1 -5245321#2 -315928579 -5247219#1 -5247219#0 -123435765#2 5248873#0"/>
    </vehicle>
    <vehicle id="bike67" type="bike_bicycle" depart="376.19" departLane="best">
        <route edges="-159396225#1 159396225#1 159396225#2 159396225#4 159396225#5 159396225#6 159396225#7 159396225#8 159396225#9 159396225#10 159396225#11 -159396219#2 -159396219#1 -159396219#0 5247010#2 -123435765#5 5245321#0 -315928580 -5247219#0 123435765#3 123435765#4"/>
    </vehicle>
    <vehicle id="bike68" type="bike_bicycle" depart="381.80" departLane="best">
        <route edges="-159396209 49682101#0 5246282#1 5246282#2 -5246845#6 -5246845#5 -5246845#4 5246845#4"/>
    </vehicle>
    <vehicle id="bike69" type="bike_bicycle" depart="387.42" departLane="best">
        <route edges="5246845#14 -5246845#14 -5246845#13 -5246845#12 -5248804#4 -48232853#0 -159396202 -161731011 159396207 49682101#0 49682101#1 49682101#2 49682101#3 49682101#4 5243462#3 5243462#4 -394751650"/>
    </vehicle>
    <vehicle id="bike70" type="bike_bicycle" depart="393.03" departLane="best">
        <route edges="-5248890#4 5248890#4 -5247714#7 5246845#5 -5248097#8 -5248097#7 -5248097#6 -5248097#5 -5248097#4 -5248097#3 -5248097#1 -5248097#0 159396197#4 159396197#5 159396197#6 159396197#7 161730983#1"/>
    </vehicle>
    <vehicle id="bike71" type="bike_bicycle" depart="398.65" departLane="best">
        <route edges="-5246845#14 -5246845#13 -5246845#12 -5246845#11 -5246845#10 -5246845#9 5248465#0 5248465#1 5248103#9"/>
    </vehicle>
    <vehicle id="bike72" type="bike_bicycle" depart="404.26" departLane="best">
        <route edges="-5248600#5 5248600#5 5248600#6 5248257#4 5248257#5 5248257#6 5248257#7 -5246845#14"/>
    </vehicle>
    <vehicle id="bike73" type="bike_bicycle" depart="409.88" departLane="best">
        <route edges="141913259#3 -141913259#3 5248465#1 -5248103#8 -5248103#7 -5248103#6 -5248103#5 -5248103#4 -5248103#3 5245321#8"/>
    </vehicle>
    <vehicle id="bike74" type="bike_bicycle" depart="415.49" departLane="best" departSpeed="max">
        <route edges="-48232853#6 -316471866 5248257#7 -5246845#14 -5246845#13 -5246845#12 -5246845#11 -5246845#10 -5246845#9 5248465#0 -141913259#2 -141913259#1 5246282#4 -5248103#6 -5248103#5 -5248103#4 -5248103#3"/>
    </vehicle>
    <vehicle id="bike75" type="bike_bicycle" depart="421.11" departLane="best">
        <route edges="93014833 -5247826#1 -5247826#0 161730983#1 161730983#2 161730983#3 161730983#4 161730983#5 161730983#6 161730983#7 424417969#0 424417969#2"/>
    </vehicle>
    <vehicle id="bike76" type="bike_bicycle" depart="426.72" departLane="best">
        <route edges="-5248605#1 5248605#1 5248605#2 5248603#0 5248603#1 5248603#2 5248603#3 5248603#4 5248603#5 5248603#6 5247826#4 159396209 159396207"/>
    </vehicle>
    <vehicle id="bike77" type="bike_bicycle" depart="432.34" departLane="best">
        <route edges="-171479232#3 171479232#3 171479232#4 286524722 -48232853#1 5248804#4 -5246845#11 -5246845#10 -5246845#9"/>
    </vehicle>
    <vehicle id="bike78" type="bike_bicycle" depart="437.95" departLane="best">
        <route edges="-5247826#0 -159396197#7 -159396197#6 159396197#6 159396197#7 5247826#0 5247826#1 5247826#2 -5248603#6 5246282#0 5246282#1 238902094#7"/>
    </vehicle>
    <vehicle id="bike79" type="bike_bicycle" depart="443.57" departLane="best">
        <route edges="-5245321#2 5245321#2 5248603#1 5243462#2 5243462#3 5243462#4 5243462#5 238902094#4 5247714#5 5247714#6 5246845#5 5246845#6 -5246845#6"/>
    </vehicle>
    <vehicle id="bike80" type="bike_bicycle" depart="449.18" departLane="best">
        <route edges="-159396212#0 -161731011 159396207 -171479232#8 -171479232#7 -171479232#6 -315935169 -5246897#1 5248600#4 5248600#5 5248600#6 -5248257#3 -5248257#2 -5248257#1 -5248257#0 424417969#0 424417969#2 346425294"/>
    </vehicle>
    <vehicle id="bike81" type="bike_bicycle" depart="454.79" departLane="best">
        <route edges="-5245321#1 -5245321#0 123435765#5 159396197#0 159396197#1 159396197#3 159396197#4 159396197#5 159396197#6 159396197#7 5247826#0 5247826#1 5247826#2 5248600#0"/>
    </vehicle>
    <vehicle id="bike82" type="bike_bicycle" depart="460.41" departLane="best" departSpeed="max">
        <route edges="5248103#0 -5248873#5 5248890#1 -5247219#7 -5247219#6 -5247219#5 -5247219#4 -5247219#2 -5247219#1 -5247219#0 123435765#3 123435765#4 123435765#5 -5247010#2 159396219#0 159396219#1 159396219#2 -159396225#11 -159396225#10 -159396225#9 -159396225#8 -159396225#7 -159396225#6 -159396225#5 -159396225#4"/>
    </vehicle>
    <vehicle id="bike83" type="bike_bicycle" depart="466.02" departLane="best">
        <route edges="-5245321#7 5248890#3 5248890#4 -5247714#7 5246845#5 5246845#6 5246845#7 -56323061#1 238902094#8 159396202 48232853#0 48232853#1 48232853#2 48232853#3 48232853#4 48232853#5 48232853#6"/>
    </vehicle>
    <vehicle id="bike84" type="bike_bicycle" depart="471.64" departLane="best">
        <route edges="-5243462#6 -5243462#5 -394751650 -394751652#0"/>
    </vehicle>
    <vehicle id="bike85" type="bike_bicycle" depart="477.25" departLane="best">
        <route edges="5248605#1 5248605#2 5248603#0 5248603#1 5248603#2 5248603#3 5248603#4 5248603#5 5248603#6 5248600#0 5248600#1 5248600#2 5248600#3 5246897#1 5246897#2 171479232#4"/>
    </vehicle>
    <vehicle id="bike86" type="bike_bicycle" depart="482.87" departLane="best">
        <route edges="-5248890#3 5248890#3 5248890#4 5248890#5 141913259#0 141913259#1 141913259#2 141913259#3 159396212#2 5248103#10 5248103#11 5246897#7"/>
    </vehicle>
    <vehicle id="bike87" type="bike_bicycle" depart="488.48" departLane="best">
        <route edges="5247219#5 238902094#2 5245321#5 5246845#3 5246845#4 5246845#5 5246845#6 -5246282#2"/>
    </vehicle>
    <vehicle id="bike88" type="bike_bicycle" depart="494.10" departLane="best">
        <route edges="-159396225#7 -159396225#6 -159396225#5 -159396225#4 -159396225#2 -159396225#1 123435724#0 123435724#1 123435724#2 123435724#3 161730983#6 161730983#7 424417969#0 -92994216"/>
    </vehicle>
    <vehicle id="bike89" type="bike_bicycle" depart="499.71" departLane="best">
        <route edges="-5248600#6 -5248600#5 -5248600#4 -5248600#3 -5248600#2 -5248600#1 -5248600#0 -5248603#6 -5248603#5 -5248097#5 -5248097#4 -5248097#3 100974465"/>
    </vehicle>
    <vehicle id="bike90" type="bike_bicycle" depart="505.33" departLane="best">
        <route edges="5245321#1 5245321#2 5248603#1 5248603#2 5248603#3 5248603#4 5248603#5 5246282#0 49682101#1"/>
    </vehicle>
    <vehicle id="bike91" type="bike_bicycle" depart="510.94" departLane="best">
        <route edges="92369363#0 92369363#1 -92369361 -92369358 159396197#5 159396197#6 159396197#7 161730983#1 161730983#2 161730983#3 161730983#4 5246897#0 5246897#1 5246897#2 -171479232#3 -171479232#1"/>
    </vehicle>
    <vehicle id="bike92" type="bike_bicycle" depart="516.56" departLane="best">
        <route edges="-5248440#2 -5248440#1"/>
    </vehicle>
    <vehicle id="bike93" type="bike_bicycle" depart="522.17" departLane="best" departSpeed="max">
        <route edges="5248103#0 -5248873#5 5248890#1 -5247219#7 -5247219#6 -5247219#5 -5247219#4 -5247219#2"/>
    </vehicle>
    <vehicle id="bike94" type="bike_bicycle" depart="527.79" departLane="best" departSpeed="max">
        <route edges="-424418019 -424417969#0 -161730983#7 -161730983#6 -161730983#5 -161730983#4 -161730983#3 -161730983#2 -161730983#1 -159396197#7 100974463#0 5248097#1 100974458"/>
    </vehicle>
    <vehicle id="bike95" type="bike_bicycle" depart="533.40" departLane="best">
        <route edges="-5248600#5 -5248600#4 -5248600#3 -5248600#2 -5248600#1 -5248600#0 -5247826#2 -5247826#1"/>
    </vehicle>
    <vehicle id="bike96" type="bike_bicycle" depart="539.02" departLane="best">
        <route edges="-5246282#4 -141913259#0 -5248097#9 -5246845#5 -5247714#6 -5247714#5 -5247714#4 -5247714#3 -5247714#2 5248603#4"/>
    </vehicle>
    <vehicle id="bike97" type="bike_bicycle" depart="544.63" departLane="best">
        <route edges="-5248804#1 5248804#1 -5248600#1 -5248600#0 -5248603#6 5246282#0 5246282#1 5246282#2 -5246845#6 5248097#9 -5248890#5 5247714#8 -5248103#4 -5248103#3 -5248103#2 5248103#2"/>
    </vehicle>
    <vehicle id="bike98" type="bike_bicycle" depart="550.25" departLane="best">
        <route edges="159396197#3 159396197#4 159396197#5 159396197#6 159396197#7 5247826#0 5247826#1 5247826#2 5247826#4 159396209 -159396209"/>
    </vehicle>
    <vehicle id="bike99" type="bike_bicycle" depart="555.86" departLane="best">
        <route edges="93014834#1 93014833 -5247826#1 -5247826#0 -159396197#7 -159396197#6 -159396197#5 -159396197#4 5248097#0"/>
    </vehicle>
    <vehicle id="bike100" type="bike_bicycle" depart="561.47" departLane="best">
        <route edges="5248890#4 -5247714#7 5246845#5 -5248097#8 238902094#6 -5246282#1 -5246282#0 5248603#6"/>
    </vehicle>
    <vehicle id="bike101" type="bike_bicycle" depart="567.09" departLane="best">
        <route edges="5248097#4 5248097#5 -5248603#4 5247714#2 5247714#3 5247714#4 5247714#5 5247714#6 -5246845#4 5243462#7 -5243462#7"/>
    </vehicle>
    <vehicle id="bike102" type="bike_bicycle" depart="572.70" departLane="best" departSpeed="max">
        <route edges="-56323061#4 -5248103#7 -5246282#4 -141913259#0 -5248097#9 -5246845#5 -5246845#4 -5246845#3 -5246845#2"/>
    </vehicle>
    <vehicle id="bike103" type="bike_bicycle" depart="578.32" departLane="best">
        <route edges="-5248440#1 5248440#1 5248440#2 5248440#3 5248440#4 159396225#4 159396225#5 159396225#6 159396225#7 159396225#8 159396225#9 159396225#10 159396225#11 -159396219#2 -159396219#1"/>
    </vehicle>
    <vehicle id="bike104" type="bike_bicycle" depart="583.93" departLane="best">
        <route edges="-5248103#7 -5246282#4 -5246282#3 -5246282#2 -5246282#1 -5246282#0 5248603#6 5248600#0 5248600#1 -5248804#1 93014822"/>
    </vehicle>
    <vehicle id="bike105" type="bike_bicycle" depart="589.55" departLane="best">
        <route edges="-5246845#14 5246897#5 5246897#6 5246897#7"/>
    </vehicle>
    <vehicle id="bike106" type="bike_bicycle" depart="595.16" departLane="best" departSpeed="max">
        <route edges="-5248804#7 -5248804#6 -5248804#5 -5248804#4 -5248804#3 -5248804#2 -5248804#1 -5248804#0 -161730983#2 -161730983#1 -159396197#7 -159396197#6 -159396197#5 92369358 -92369358"/>
    </vehicle>
    <vehicle id="bike107" type="bike_bicycle" depart="600.78" departLane="best">
        <route edges="5248873#4 -5248873#4 5246845#1 -5247219#6 238902094#2 -5245321#4 -5245321#3 5248603#1 5248603#2 5248603#3 5248603#4 5248603#5 5248603#6 -5247826#2 -93014833 -93014831 93014834#1"/>
    </vehicle>
    <vehicle id="bike108" type="bike_bicycle" depart="606.39" departLane="best">
        <route edges="159396197#6 100974463#0 5248097#1 5248097#3 5248097#4 5248097#5 -5248603#4 -5248603#3 -5248603#2 -5248603#1 5245321#3"/>
    </vehicle>
    <vehicle id="bike109" type="bike_bicycle" depart="612.01" departLane="best">
        <route edges="-316333792#0 -141913259#6 -5248804#5 -5246845#11 -5246845#10 -5246845#9 -5246845#8 -5246845#7 -5246845#6 -5248097#8 -5248097#7"/>
    </vehicle>